! This kinetic model was made up to test RMG-Py

ELEMENTS H END
SPECIES
	A
	B
END
THERMO ALL
   300.000  1000.000  5000.000
! A is made up to have a standard enthalpy of formation of +500 kJ/mol at all T
! B is made up to have a standard enthalpy of formation of -500 kJ/mol at all T 
! Entropies are just greater than zero to satisfy the chemkin-to-cantera converter
A                 silly H   1               G   200.000  6000.000 1000.        1
 0.00000000E+00 0.00000000E+00 0.00000000E+00 0.00000000E+00 0.00000000E+00    2
 6.01361097E+04 0.00000001E+00 0.00000000E+00 0.00000000E+00 0.00000000E+00    3
+0.00000000E+00 0.00000000E+00+6.01361097E+04 0.00000001E+00                   4
B                 silly H   1               G   200.000  6000.000 1000.        1
 0.00000000E+00 0.00000000E+00 0.00000000E+00 0.00000000E+00 0.00000000E+00    2
-6.01361097E+04 0.00000001E+00 0.00000000E+00 0.00000000E+00 0.00000000E+00    3
 0.00000000E+00 0.00000000E+00-6.01361097E+04 0.00000001E+00                   4
END

REACTIONS	KCAL/MOLE

A = B	1.0e+00	 0.00 	 0.000 	 ! Made up. Unimolecular rate constant 1/s

END
