! release date: 2016-07-18; 68 species, 631 reactions
! ---------------------------------------------------------------------------------------------------------- !
! -------------       | DTU mechanism    
! -------------       | Peter Glarborg   pgl@kt.dtu.dk
! -------------       | Hamid Hashemi    hah@kt.dtu.dk 
! -------------       | DTU Chemical Engineering	 
! -------------       
! -------------       | http://www.chec.kt.dtu.dk/
! -------------       | CHEC (Combustion and Harmful Emission Control) 
! -------------       | Technical University of Denmark
! -------------       | Department of Chemical and Biochemical Engineering
! -------------       | Søltofts Plads, Building 229
! -------------       | 2800  Kgs. Lyngby, Denmark
! ---------------------------------------------------------------------------------------------------------- !

! ----- Ref:
! ----- H. Hashemi, J. M. Christensen, S. Gersen, H. Levinskyb, S.J. Klippenstein, P. Glarborg, 
! ----- "High-Pressure Oxidation of Methane", Combust. Flame (2016), in Press (doi: 10.1016/j.combustflame.2016.07.016)
!
! ----- H. Hashemi, J. M. Christensen, S. Gersen, P. Glarborg, "Hydrogen oxidation at high pressure and
! ----- intermediate temperatures: Experiments and kinetic modeling", Proc. Combust. Inst. 35 (2015) 553–560.
! 
! ----- J.G. Lopez, C.L.Rasmussen, H. Hashemi, M.U. Alzueta, Y. Gao, P. Marshall, C.F. Goldsmith, P. Glarborg,
! ----- "Experimental and Kinetic Modeling Study of C2H2 Oxidation at High Pressure", Int. J. Chem. Kinet. (2016), in Press
! 
! ---------------------------------------------------------------------------------------------------------- !
! ---------------------------------------------------------------------------------------------------------- !

! <><><><><><><><><><><><><><><><><><><><><><><><><><><><><><><><><><><><><><><><><><><><><><><><><><><><><> !
!     PRIOR TO ITS USE IN THE CALCULATIONS, THIS FILE HAS TO BE MODIFIED.
!     DEPENDING ON WHAT BATH GAS (DILUTANT) IS MOST ABUNDANT IN YOUR SYSTEM
!     (THE PRESENT CHOICES ARE N2, AR, OR HE),  YOU  SHOULD UNCOMMENT THE
!     CORRESPONDING BLOCK FOR THE REACTION H+O2(+M)=HO2(+M), AND COMMENT THE
!     BLOCK FOR OTHER DILUTANT(S).  AS GIVEN, THE MAIN DILUTANT IS SET TO BE N2.
!
! <><><><><><><><><><><><><><><><><><><><><><><><><><><><><><><><><><><><><><><><><><><><><><><><><><><><><> !
ELEMENTS
H O C N AR HE
END
! <><><><><><><><><><><><><><><><><><><><><><><><><><><><><><><><><><><><><><><><><><><><><><><><><><><><><> !



SPECIES !---------------------------------------------------!
!                 !            !  MOLECULAR !  COMPOSITION  !
!                 ! CAS Number !   WEIGHT   !               !
!-----------------------------------------------------------!
H                 !            !    1.008   !     H1        !
H2                !            !   2.0159   !     H2        !
HE                !            !   4.0026   !               !
O                 !            !   15.999   !         O1    !
OH                !            !   17.007   !     H1  O1    !
H2O               !            !   18.015   !     H2  O1    !
N2                !            !   28.013   !             N2!
O2                !            !   31.999   !         O2    !
HO2               !            !   33.007   !     H1  O2    !
H2O2              !            !   34.015   !     H2  O2    !
AR                !            !   39.948   !               !
                  !            !            !               !
                  !            !            !               !
!----------------          C1         ----------------------!
C                 !            !   12.011   ! C1            !
CH                !            !   13.019   ! C1  H1        !
CH2               !            !   14.027   ! C1  H2        !
CH2(S)            !            !   14.027   ! C1  H2        !
CH3               !            !   15.035   ! C1  H3        !
CH4               !            !   16.043   ! C1  H4        !
CO                !            !   28.011   ! C1      O1    !
HCO               !            !   29.019   ! C1  H1  O1    !
CH2O              ! 50-00-0    !   30.026   ! C1  H2  O1    !
HCOH              ! 19710-56-6 !   30.026   ! C1  H2  O1    !
CH3O              !  2143-68-2 !   31.034   ! C1  H3  O1    !
CH2OH             ! 2597-43-5  !   31.034   ! C1  H3  O1    !
CH3OH             ! 67-56-1    !   32.042   ! C1  H4  O1    !
CO2               ! 124-38-9   !    44.01   ! C1      O2    !
HOCO              !            !   45.018   ! C1  H1  O2    !
OCHO              !            !   45.018   ! C1  H1  O2    !
HOCHO             ! 64-18-6    !   46.026   ! C1  H2  O2    !
CH3OO             ! 2143-58-0  !   47.034   ! C1  H3  O2    !
CH2OOH            !            !   47.034   ! C1  H3  O2    !
HOCH2O            !            !   47.034   ! C1  H3  O2    !
CH3OOH            !            !   48.042   ! C1  H4  O2    !
! OCH2O2H         !            !   63.033   ! C1  H3  O3    !
                  !            !            !               !
!----------------          C2         ----------------------!
C2                ! 12070-15-4 !   24.022   ! C2            !
C2H               !            !    25.03   ! C2  H1        !
C2H2              ! 74-86-2    !   26.038   ! C2  H2        !
H2CC              ! 2143-69-3  !   26.038   ! C2  H2        !
C2H3              ! 2669-89-8  !   27.046   ! C2  H3        !
C2H4              ! 74-85-1    !   28.054   ! C2  H4        !
C2H5              ! 2025-56-1  !   29.062   ! C2  H5        !
C2H6              ! 74-84-0    !    30.07   ! C2  H6        !
C2O               ! 12071-23-7 !   40.022   ! C2      O1    !
HCCO              ! 51095-15-9 !    41.03   ! C2  H1  O1    !
HCCOH             ! 32038-79-2 !   42.038   ! C2  H2  O1    !
CH2CO             ! 463-51-4   !   42.038   ! C2  H2  O1    !
CHCHO             !            !   42.038   ! C2  H2  O1    !
CHCHOH            !            !   43.046   ! C2  H3  O1    !
cC2H3O            ! 31586-84-2 !   43.046   ! C2  H3  O1    !
CH3CO             !  3170-69-2 !   43.046   ! C2  H3  O1    !
CH2CHO            ! 6912-06-7  !   43.046   ! C2  H3  O1    !
CH3CHO            ! 75-07-0    !   44.054   ! C2  H4  O1    !
cC2H4O            ! 75-21-8    !   44.054   ! C2  H4  O1    !
CH2CHOH           ! 557-75-5   !   44.054   ! C2  H4  O1    !
CH3CH2O           ! 2154-50-9  !   45.062   ! C2  H5  O1    !
CH3CHOH           ! 2348-46-1  !   45.062   ! C2  H5  O1    !
CH2CH2OH          ! 4422-54-2  !   45.062   ! C2  H5  O1    !
! CH3OCH2         ! 16520-04-0 !   45.062   ! C2  H5  O1    !
CH3CH2OH          ! 64-17-5    !    46.07   ! C2  H6  O1    !
! CH3OCH3         ! 115-10-6   !    46.07   ! C2  H6  O1    !
OCHCO             !            !   57.029   ! C2  H1  O2    !
OCHCHO            ! 107-22-2   !   58.037   ! C2  H2  O2    !
CH2CHOO           !            !   59.045   ! C2  H3  O2    !
CH3C(O)O          !            !   59.045   ! C2  H3  O2    !
! CH3OCO          !            !   59.045   ! C2  H3  O2    !
! OCH2CHO         !            !   59.045   ! C2  H3  O2    !
! CH2OCHO         !            !   59.045   ! C2  H3  O2    !
CH2CHOOH          !            !   60.053   ! C2  H4  O2    !
! CH3OCHO         ! 107-31-3   !   60.053   ! C2  H4  O2    !
CH3CH2OO          !            !   61.061   ! C2  H5  O2    !
CH3CHOOH          !            !   61.061   ! C2  H5  O2    !
CH2CH2OOH         ! 126898-98-4!   61.061   ! C2  H5  O2    !
! CH3OCH2O        !            !   61.061   ! C2  H5  O2    !
CH3CH2OOH         !  3031-74-1 !   62.069   ! C2  H6  O2    !
! CH3OCH2OH       !            !   62.069   ! C2  H6  O2    !
! CHOOCO          !            !   73.028   ! C2  H1  O3    !
! CYOCH2OC*O      !            !   74.036   ! C2  H2  O3    !
! OOCH2CHO        !            !   75.044   ! C2  H3  O3    !
! HOOCH2CO        !            !   75.044   ! C2  H3  O3    !
! OCH2OCHO        !            !   75.044   ! C2  H3  O3    !
! HOCH2OCO        !            !   75.044   ! C2  H3  O3    !
! CH3OC*OO        !            !   75.044   ! C2  H3  O3    !
CH3C(O)OO         ! 36709-10-1 !   75.044   ! C2  H3  O3    !
CH3C(O)OOH        !            !   76.052   ! C2  H4  O3    !
HOCH2CH2OO        ! 40135-01-1 !    77.06   ! C2  H5  O3    !
! CH3OCH2OO       !            !    77.06   ! C2  H5  O3    !
! CH2OCH2OOH      !            !    77.06   ! C2  H5  O3    !
! CH3OCH2OOH      !            !   78.068   ! C2  H6  O3    !
! CH2OC*OOOH      !            !   91.044   ! C2  H3  O4    !
! OOCH2OCHO       !            !   91.044   ! C2  H3  O4    !
! HOOCH2OC*O      !            !   91.044   ! C2  H3  O4    !
! CH3OC*OOO       !            !   91.044   ! C2  H3  O4    !
! HO2CH2OCHO      !            !   92.052   ! C2  H4  O4    !
! CH3OC*OOOH      !            !   92.052   ! C2  H4  O4    !
! O*CHOC*OOOH     !            !   106.04   ! C2  H2  O5    !
! O2CH2OCH2O2H    !            !   109.06   ! C2  H5  O5    !
! OOCH2OC*OOOH    !            !   123.04   ! C2  H3  O6    !
! HOOCH2OC*OOO    !            !   123.04   ! C2  H3  O6    !
END !-------------------------------------------------------!



! <><><><><><><><><><><><><><><><><><><><><><><><><><><><><><><><><><><><><><><><><><><><><><><><><><><><><> !
! <><><><><><><><><><><><><><><><><><><><><><><><><><><><><><><><><><><><><><><><><><><><><><><><><><><><><> !
! <><><><><><><><><><><><><><><><><><><><><><><><><><><><><><><><><><><><><><><><><><><><><><><><><><><><><> !
REACTIONS


! *****************************************************************************
!    H2/O2 subset                                                             *
! *****************************************************************************
!=====================================================================
! MAIN BATH GAS IS N2 (comment this reaction otherwise)
!
H+O2(+M)=HO2(+M)                     4.7E12   0.440       0 !
 LOW/6.366E+20 -1.72  5.248E+02/
 TROE/0.5  1E-30  1E+30/
 H2/2.0/ H2O/14/ O2/0.78/ CO/1.9/ CO2/3.8/ AR/0.67/
!=====================================================================
! MAIN BATH GAS IS AR (comment this reaction otherwise)
!
!H+O2(+M)=HO2(+M)                     4.7E12   0.440       0 !
! LOW/9.042E+19 -1.50  4.922E+02/
! TROE/0.5 1E-30  1E+30/
! H2/3.0/ H2O/21/ O2/1.1/ CO/2.7/ CO2/5.4/ N2/1.5/
!=====================================================================
! High-pressure limit from Troe, Proc. Comb. Inst. 28:1463-1469 (2000)
! Low-pressure  limit from Michael et al., J. Phys. Chem. A 106:5297-5313
! Centering factors from Fernandes et al., Phys. Chem. Chem. Phys. 10:4313-4321 (2008)

H+O2=O+OH                            1.0E14   0.000   15286 !
! Hong et al., Proc. Comb. Inst. 33:309-316 (2011)

O+H2=OH+H                            3.8E12   0.000    7948 !
 DUPLICATE                                                  !
O+H2=OH+H                            8.8E14   0.000   19175 !
 DUPLICATE                                                  !
! Baulch DL Bowman CT Cobos CJ Cox RA Just Th Kerr JA Pilling MJ Stocker D Troe J Tsang W Walker RW Warnatz J JPCRD 34:757-1397 2005

OH+H2=H+H2O                          2.2E08   1.510    3430 !
! Michael and Sutherland, J. Phys. Chem. 92:3853 (1988)

!OH+OH=O+H2O                          1.4E07   1.689   -1167 !
! DUPLICATE
!OH+OH=O+H2O                         -2.7E10   0.567       0 !
! DUPLICATE
! M. Sangwan, L. N. Krasnoperov, J Phys Chem A 116 (2012) 11817–11822.
OH+OH=O+H2O							2.015E+07   1.651    630.7
DUPLICATE
OH+OH=O+H2O							2.595E+11   -0.057   -827.0
DUPLICATE
! Refitted (400-3000 K) for better stability of the solver

H2+M=H+H+M                           4.6E19  -1.400  104380 !
 H2/2.5/ H2O/12/ CO/1.9/ CO2/3.8/ AR/0.0/
H2+AR=H+H+AR                         5.8E18  -1.100  104380 !
! Tsang and Hampson, J. Phys. Chem. Ref. Data, 15:1087 (1986)

H+O+M=OH+M                           4.7E18  -1.000       0 !
 H2/2.5/  H2O/12/ AR/0.75/ CO/1.9/  CO2/3.8/
! Tsang and Hampson, J. Phys. Chem. Ref. Data, 15:1087 (1986)

O+O+M=O2+M                           1.9E13   0.000   -1788 !
 H2/2.5/ H2O/12/ AR/0.0/ CO/1.9/ CO2/3.8/
! Tsang W Hampson RF JPCRD 15:1087 1986

H2O+M = H+OH+M                       6.1E27  -3.322  120790 !
 H2/3.0/ H2O/0.0/ N2/2.0/ O2/1.5/ CO/1.9/ CO2/3.8/
! Srinivasan and Michael, Int. J. Chem. Kinetic. 38 (2006)
! Rate constant is for Ar with efficiencies from Michael et al., J. Phys. Chem. A, 106 (2002)
! Efficiencies for CO and CO2 taken from Li et al., Int. J. Chem. Kinet. 36:566-575 (2004)
H2O+H2O = H+OH+H2O                   1.0E26  -2.440  120180 !
! Srinivasan and Michael, Int. J. Chem. Kinetic. 38 (2006)

HO2+H=H2+O2                          2.8E06   2.090   -1451 !
! Michael et al., Proc. Comb. Inst. 28:1471 (2000)
! Scaled by 0.75 Burke et al. (2012)

HO2+H=OH+OH                          7.1E13   0.000     295 !
! Mueller et al., Int. J. Chem. Kinetic. 31:113 (1999)

HO2+H=H2O+O                          1.4E12   0.000       0 !
! Baulch DL Bowman CT Cobos CJ Cox RA Just Th Kerr JA Pilling MJ Stocker D Troe J Tsang W Walker RW Warnatz J JPCRD 34:757-1397 2005

HO2+O=O2+OH                          2.9E10   1.000    -724 !
! Fernandez-Ramos and Varandas, J. Phys. Chem. A 106:4077-4083 (2002)
! Scaled by 0.60 by Burke et al. 2012

HO2+OH = H2O+O2                      1.9E20  -2.490     584 !
 DUPLICATE
HO2+OH = H2O+O2                      1.2E09   1.240   -1310 !
 DUPLICATE
! M. P. Burke, S. J. Klippenstein, L. B. Harding, Proc Combust Inst 34 (2013) 547–555.

HO2+HO2=H2O2+O2                      1.2E09   0.7712  -1825 !
 DUPLICATE
HO2+HO2=H2O2+O2                      1.3E12   0.295    7397 !                   	
   DUPLICATE
! D. D. Y. Zhou, K. Han, P. Zhang, L. B. Harding, M. J. Davis, R. T. Skodje, J Phys Chem A 116 (2012) 2089–2100.

H2O2(+M) = OH+OH(+M)                 2.0E12   0.900   48749 !
 LOW/                                2.5E24  -2.300   48749/
 TROE/0.43 1E-30 1E+30/
 AR/1.0/ H2O/7.5/ CO2/1.6/ N2/1.5/ O2/1.2/ H2O2/7.7/ H2/3.7/ CO/2.8/
! Troe, Combust. Flame 158:594-601 (2011)
! Efficiencies for H2 and CO taken from Li et al., Int. J. Chem. Kinet. 36:566-575 (2004)

H2O2+H=H2O+OH                        2.4E13   0.000    3970 !
! Tsang and Hampson, J. Phys. Chem. Ref. Data, 15:1087 (1986)

H2O2+H=HO2+H2                        4.8E13   0.000    7950 !
! Tsang and Hampson, J. Phys. Chem. Ref. Data, 15:1087 (1986)

H2O2+O=HO2+OH                        9.6E06   2.000    3970 !
! Tsang W Hampson RF JPCRD 15:1087 1986

H2O2+OH=HO2+H2O                      1.7E12   0.000     318 !
   DUPLICATE
H2O2+OH=HO2+H2O                      7.6E13   0.000    7270 !
   DUPLICATE
! Hong et al., J. Phys. Chem. A  114 (2010) 5718–5727

! *****************************************************************************
! *     CO/CO2	subset	                                                      *
! *****************************************************************************

CO+O(+M)=CO2(+M)                     1.8E10   0.000    2384 !
 LOW  /                              1.4E24  -2.790    4191/                                  !
 TROE /1.0 1E-30 1E30 1E30/                                 !
 H2/2.5/ H2O/12/ CO/1.9/ CO2/3.8/                           !
! Mueller MA Yetter RA Dryer FL IJCK 31:705 1999

CO+OH=CO2+H                          8.7E05   1.730    -685 !
 PLOG/  0.01315                      2.1E05   1.900   -1064/
 PLOG/  0.1315                       2.5E05   1.880   -1043/
 PLOG/  1.315                        8.7E05   1.730    -685/				
 PLOG/ 13.158                        6.8E06   1.480      48/
 PLOG/ 131.58                        2.3E07   1.350     974/
! J.P. Senosiain, S.J. Klippenstein, J.A. Miller, Proc. Combust. Inst. 30 (2005) 945-953.

CO+OH=HOCO                           2.0E20  -3.500    1309 !  1.0 atm interpolation - LPL (JPS,SJK,&JAM 30th Symp)
 PLOG/ 0.013158                      1.7E15  -2.680     859/						
 PLOG/ 0.13158                       5.9E18  -3.350     887/					
 PLOG/ 1.3158	                     2.6E20  -3.500    1309/						
 PLOG/ 13.158	                     7.1E20  -3.320    1763/					
 PLOG/ 131.58                        1.1E20  -2.780    2056/	
! J.P. Senosiain, S.J. Klippenstein, J.A. Miller, Proc. Combust. Inst. 30 (2005) 945-953.	

CO+HO2=CO2+OH                        1.6E05   2.180   17943 !
! You X Wang H Goos E Sung C-J Klippenstein SJ JCPA 111:4031-4042 2007

CO+O2=CO2+O                          4.7E12   0.000   60500 !
! Bacskay GB Mackie JC JPCA 109:2019-2025 2005

CO+H2O2=HOCO+OH                      3.6E04   2.500   28660 !
! P Glarborg P Marshall CPL 475 (2009) 40-43

HOCO(+M)=CO2+H(+M)                   8.2E11   0.413   35335 !
 LOW  /                              6.0E26  -3.148   37116 /                               !
 TROE / 0.39 1.0E-30 1.0E30 /                               ! Fc = 0.39
! DM Golden GP Smith AB McEwen C-L Yu B Eiteneer M Frenklach GL Vaghjiani AR Ravishankara FP Tully J Phys Chem. A 102 (1998) 8598-8606.


HOCO+H=CO2+H2                        3.1E17  -1.3475    555 !
! H.G. Yu, J.S. Francisco, J. Chem. Phys. 128 (2008) 244315.
! P. Marshall, P. Glarborg, Proc. Combust. Inst. 35 (2015) 153-160 (300-1000 K, fit).

HOCO+H=CO+H2O                        6.0E15  -0.525    2125 !
! H.G. Yu, J.S. Francisco, J. Chem. Phys. 128 (2008) 244315.
! P. Marshall, P. Glarborg, Proc. Combust. Inst. 35 (2015) 153-160 (300-1000 K, fit).

HOCO+O=CO2+OH                        9.0E12   0.000       0 !
! H.G. Yu, J.T. Muckerman, J.S. Francisco, J. Chem. Phys. 127 (2007) 094302.

HOCO+OH=CO2+H2O                      4.6E12   0.000     -89 !
 DUPLICATE                                                  !
HOCO+OH=CO2+H2O                      9.5E06   2.000     -89 !
 DUPLICATE                                                  !
! Yu H-G Muckerman JT Francisco JS JPCA 109:5230-5236 2005

HOCO+HO2=CO2+H2O2                    4.0E13   0.000       0 !
! H.G. Yu, G. Poggi, J.S. Francisco, J.T. Muckerman, J. Chem. Phys. 129 (2008) 214307.

HOCO+O2=CO2+HO2                      4.0E09   1.000       0 !
! H.G. Yu, J.T. Muckerman, J. Phys. Chem. A 110 (2006) 5312-5316.
! P. Marshall, P. Glarborg, Proc. Combust. Inst. 35 (2015) 153-160 (300-1000 K, fit).	
	
	
! *****************************************************************************
!    CH2O subset                                                              *
! *****************************************************************************
CH2O(+M)=HCO+H(+M)                   8.0E15   0.000   87726 !
 LOW /                               1.3E36  -5.500   93932/
! Troe J JPCA 109:8320-8328 2005
! J. Troe, J. Phys. Chem. A 111 (2007) 3862–3867.

CH2O(+M)=CO+H2(+M)                   3.7E13   0.000   71969 !
 LOW /                               4.4E38  -6.100   93932/
! Troe J JPCA 109:8320-8328 2005
! J. Troe, J. Phys. Chem. A 111 (2007) 3862–3867.

	!CH2O+H=HCO+H2                        5.9E03   3.130    1510 !
	! Wang SK Dames EE Davidson DF Hanson RK, J. Phys. Chem. A  118 10201-10209 2014
! including prompt dissociation of HCO (following Labbe et al., J. Phys. Chem. Lett. 2016):
CH2O+H=H+CO+H2	5.11E+07	2.182	11524	
PLOG/0.04		7.20E+08	1.903	11733	/
PLOG/1			5.11E+07	2.182	11524	/
PLOG/10			1.16E+09	1.812	13163	/
CH2O+H=HCO+H2	1	1	1
PLOG/0.04		7.435E+23   -2.732   16379.1  /
PLOG/0.04      	2.098E+10   1.057   3719.6    / 
PLOG/1			1.357E+23   -2.355   17518.7  /
PLOG/1      	1.639E+15   -0.444   5682.4   / 
PLOG/10			7.314E+23   -2.665   17634.6  /
PLOG/10			4.189E+09   1.294   3590.9    / 

	!CH2O+O=HCO+OH                        4.2E11   0.570    2760 !
	! Baulch DL Bowman CT Cobos CJ Cox RA Just Th Kerr JA Pilling MJ Stocker D Troe J Tsang W Walker RW Warnatz J JPCRD 34:757-1397 2005	
! including prompt dissociation of HCO (following Labbe et al., J. Phys. Chem. Lett. 2016):
CH2O+O=H+CO+OH          2.5141e+21          -1.903           22674
CH2O+O=HCO+OH 		5.634E+31   -5.189   19968.2
DUPLICATE
CH2O+O=HCO+OH 		 1.358E+15   -0.530   4010.7
DUPLICATE

	! CH2O+O2=HCO+HO2                      2.4E05   2.500   36461 !
	! Baulch DL Bowman CT Cobos CJ Cox RA Just Th Kerr JA Pilling MJ Stocker D Troe J Tsang W Walker RW Warnatz J JPCRD 34:757-1397 2005
! including prompt dissociation of HCO (following Labbe et al., J. Phys. Chem. Lett. 2016):
CH2O+O2=HCO+HO2          2.4E05   2.500   36461
     DUPLICATE
CH2O+O2=HCO+HO2          -1.437E+15   0.027   56388.3
     DUPLICATE
CH2O+O2=H+CO+HO2          1.437E+15   0.027   56388.3

	!CH2O+OH=HCO+H2O                      2.4E07   1.830   -1116 !
	! S. Wang, D. F. Davidson, R. K. Hanson, Proc. Combust. Inst. 35 473-480 2015
! including prompt dissociation of HCO (following Labbe et al., J. Phys. Chem. Lett. 2016):
CH2O+OH=H+CO+H2O	7.24E+10	0.892	9310	
PLOG/0.04			7.03E+10	0.911	8646	/
PLOG/1				7.24E+10	0.892	9310	/
PLOG/10				8.37E+10	0.879	9843	/
CH2O+OH=HCO+H2O		1.854E+09   1.256   -302.4
PLOG/0.04		3.559E+09   1.167   -205.7    /  
PLOG/1			1.854E+09   1.256   -302.4    /  
PLOG/10        1.070E+09   1.330   -391.7    /  

	
! CH2O+HO2=HCO+H2O2                    4.1E04   2.500   10206 ! RAS/GLA08b EIT/FRE98
! Eiteneer B Yu CL Goldenberg M Frenklach M JPCA 102:5196 1998
! including prompt dissociation of HCO (following Labbe et al., J. Phys. Chem. Lett. 2016):
CH2O+HO2=HCO+H2O2                    4.1E04   2.500   10206 
     DUPLICATE
CH2O+HO2=HCO+H2O2          -2.454E+14   0.027   30133.3
     DUPLICATE
CH2O+HO2=H+CO+H2O2 		2.4543e+14          0.027           30120

! CH2O+CH3=HCO+CH4                     3.2E01   3.360    4310 
! Baulch DL Bowman CT Cobos CJ Cox RA Just Th Kerr JA Pilling MJ Stocker D Troe J Tsang W Walker RW Warnatz J JPCRD 34:757-1397 2005
! including prompt dissociation of HCO (following Labbe et al., J. Phys. Chem. Lett. 2016):
CH2O+CH3=HCO+CH4                     3.2E01   3.360    4310
     DUPLICATE
CH2O+CH3=HCO+CH4          -1.916E+11   0.887   24237.3
     DUPLICATE
CH2O+CH3=H+CO+CH4 		1.9155e+11          0.887           24224

HCO(+M)=H+CO(+M)             4.93E16  -0.93  19724     					
  LOW/ 7.43E21  -2.36  19383/								
  TROE/ 0.103  139. 10900. 4550/								
  N2/1.5/ HE/1.3/ O2/1.5/ CO/1.5/   H2/2.0/  CH4/5.0/ CO2/3./ H2O/15./
! Yang et al., 8th U. S. National Combustion Meeting, 2013, 070RK-0163.

 HCO+H=CO+H2                          1.1E14   0.000       0 
! Friedrichs G Herbon JT Davidson DF Hanson RK CPPC 4:5778-5788 2002

HCO+O=CO+OH                          3.0E13   0.000       0 
! Baulch DL Cobos CJ Cox RA Esser C Frank P Just Th Kerr JA Pilling MJ Troe J Walker RW Warnatz J JPCRD 21:403 1992

HCO+O=CO2+H                          3.0E13   0.000       0 
! Baulch DL Cobos CJ Cox RA Esser C Frank P Just Th Kerr JA Pilling MJ Troe J Walker RW Warnatz J JPCRD 21:403 1992

HCO+OH=CO+H2O                        1.1E14   0.000       0 
! Baulch DL Bowman CT Cobos CJ Cox RA Just Th Kerr JA Pilling MJ Stocker D Troe J Tsang W Walker RW Warnatz J JPCRD 34:757-1397 2005

HCO+O2=CO+HO2                        6.9E06   1.900   -1369 
! FassheberN Friedrichs G Marshall P Glarborg P J. Phys. Chem. A 119 (2015) 7305-7315.

HCO+HO2=CO2+OH+H                     3.0E13   0.000       0 
! Tsang W Hampson RF JPCRD 15:1087 1986

HCO+HCO=CO+CH2O                      2.7E13   0.000       0 
! Friedrichs G Herbon JT Davidson DF Hanson RK CPPC 4:5778-5788 2002
	
! *****************************************************************************
!    CH4 subset                                                               *
! *****************************************************************************

CH3+H(+M)=CH4(+M)                    2.3E14   0.032     144 
  LOW/2.7E35 -5.345 3380/
  TROE /0.395 163.5 4250.3 1253676/
  AR/0.61/ CH4/3.85/  H2O/10/ H2/4/ CO/1.4/ CO2/4/ C2H6/4.5/ N2/1.4/ HE/2/ 
! J. Troe, V. G. Ushakov, J. Chem. Phys. 136 (2012) 214309

CH4+H=CH3+H2                         4.1E03   3.156    8755
! Sutherland JW Su M-C Michael JV IJCK 33:669-684 2001

CH4+O=CH3+OH                         4.4E05   2.500    6577
! Baulch DL Bowman CT Cobos CJ Cox RA Just Th Kerr JA Pilling MJ Stocker D Troe J Tsang W Walker RW Warnatz J JPCRD 34:757-1397 2005

CH4+OH=CH3+H2O                       1.0E06   2.182    2506
! Srinivasan NK Su M-C Sutherland JW Michael JV JPCA 109:7902-7914 2005

CH4+HO2=CH3+H2O2                     4.7E04   2.500   21000
! Baulch DL Bowman CT Cobos CJ Cox RA Just Th Kerr JA Pilling MJ Stocker D Troe J Tsang W Walker RW Warnatz J JPCRD 34:757-1397 2005

CH4+O2=CH3+HO2					2.03E5  2.745  51714
! Srinivasan, Michael, Harding, Klippenstein, Combust Flame 149, 104 (2007)

CH4+CH2=CH3+CH3                      4.3E12   0.000   10030
! Bohland T Dobe S Wagner HGg BBPC 89:1110 (1985)

CH4+CH2(S)=CH3+CH3                   4.3E13   0.000       0 
! Tsang W Hampson RF JPCRD 15:1087 1986

CH4+CH=C2H4+H                        3.0E13   0.000    -400 
! Baulch DL Cobos CJ Cox RA Esser C Frank P Just Th Kerr JA Pilling MJ Troe J Walker RW Warnatz J JPCRD 21:403 1992

CH3+M=CH+H2+M                        3.1E15   0.00    80871
! V Vasudevan, RK Hanson, DM Golden, CT Bowman, DF Davidson, J. Phys. Chem. A 2007, 111, 4062-4072

CH3+M=CH2+H+M                        2.2E15   0.00    82659
! V Vasudevan, RK Hanson, DM Golden, CT Bowman, DF Davidson, J. Phys. Chem. A 2007, 111, 4062-4072

CH2+H2=CH3+H                         4.4E05   2.39     7350
! K-W Lu, H Matsui, C-L Huang, P Raghunath, N-S Wang, MC Lin, J. Phys. Chem. A 2010, 114, 5493–5502

CH2(S)+H2=CH3+H                      7.2E13   0.000       0 
! Baulch DL Cobos CJ Cox RA Esser C Frank P Just Th Kerr JA Pilling MJ Troe J Walker RW Warnatz J JPCRD 21:403 1992

CH3+O=CH2O+H                         6.9E13   0.000       0 
! Baulch DL Bowman CT Cobos CJ Cox RA Just Th Kerr JA Pilling MJ Stocker D Troe J Tsang W Walker RW Warnatz J JPCRD 34:757-1397 2005

CH3+O=H2+CO+H                        1.5E13   0.000       0 
! Baulch DL Bowman CT Cobos CJ Cox RA Just Th Kerr JA Pilling MJ Stocker D Troe J Tsang W Walker RW Warnatz J JPCRD 34:757-1397 2005

CH3+OH=CH2+H2O                       4.3E04   2.568    3997 
! Jasper AW Klippenstein SJ Harding LB Ruscic B JPCA 111:3932-3950 2007
! 300-3000 K abstraction on the triplet surface (not in paper)

CH3+OH=CH3OH           6.196e13 -0.01761 -33.26 ! 100-4000 K high P limit for CH3+OH total capture
PLOG /    0.001316                   6.9E30  -6.63794  2829/ 
PLOG /    0.013158                   1.1E32  -6.63695  3364/ 
PLOG /    0.131579                   1.5E32  -6.36057  3954/
PLOG /    1.315789                   5.6E30  -5.64842  4214/
PLOG /   13.157895                   1.4E27  -4.33275  3685/
PLOG /  131.578947                   1.3E22  -2.66369  2451/
! Jasper AW Klippenstein SJ Harding LB Ruscic B JPCA 111:3932-3950 2007

CH3+OH=CH2(S)+H2O                    4.3E15  -0.85972  1888 !
 PLOG /   0.001316                   1.1E14  -0.45845  -496 /
 PLOG /   0.013158                   2.2E14  -0.53832  -220 /
 PLOG /   0.131579                   1.2E15  -0.72747   600 /
 PLOG /   1.315789                   4.3E15  -0.85972  1888 /
 PLOG /  13.157895                   4.4E14  -0.53864  2932 /
 PLOG / 131.578947                   6.1E10   0.59560  2923 /
! Jasper AW Klippenstein SJ Harding LB Ruscic B JPCA 111:3932-3950 2007

CH3+OH=H2+CH2O                       3.6E12  -0.53245  2042 !
 PLOG /   0.001316                   3.9E09   0.25392 -1221 /
 PLOG /   0.013158                   2.0E10   0.06025  -624 /
 PLOG /   0.131579                   2.8E11  -0.24957   498 /
 PLOG /   1.315789                   3.6E12  -0.53245  2042 /
 PLOG /  13.157895                   2.2E12  -0.43166  3415 /
 PLOG / 131.578947                   2.4E09   0.45344  3791 /
! Jasper AW Klippenstein SJ Harding LB Ruscic B JPCA 111:3932-3950 2007
!
CH3+OH=H+CH2OH                       5.6E10   0.73966  3971 !
 PLOG /   0.001316                   8.4E09   0.96279  3230 /
 PLOG /   0.013158                   8.4E09   0.96279  3230 /
 PLOG /   0.131579                   1.0E10   0.94201  3295 /
 PLOG /   1.315789                   5.6E10   0.73966  3971 /
 PLOG /  13.157895                   5.5E11   0.48620  5443 /
 PLOG / 131.578947                   2.5E10   0.90920  6402 /
! Jasper AW Klippenstein SJ Harding LB Ruscic B JPCA 111:3932-3950 2007
!
CH3+OH=H+CH3O                        7.9E08   1.06457 11859 !
 PLOG /   0.001316                   7.9E08   1.06509 11859 /
 PLOG /   0.013158                   7.9E08   1.06509 11859 /
 PLOG /   0.131579                   7.9E08   1.06509 11859 /
 PLOG /   1.315789                   7.9E08   1.06457 11859 /
 PLOG /  13.157895                   1.0E09   1.03413 11970 /
 PLOG / 131.578947                   3.1E09   0.92189 12981 /
! Jasper AW Klippenstein SJ Harding LB Ruscic B JPCA 111:3932-3950 2007
!
CH3+OH=H2+HCOH                       6.5E11   0.11155   932 !
 PLOG /   0.001316                   1.2E09   0.83024 -2323 /
 PLOG /   0.013158                   6.4E09   0.63305 -1701 /
 PLOG /   0.131579                   8.0E10   0.33964  -565 /
 PLOG /   1.315789                   6.5E11   0.11155   932 /
 PLOG /  13.157895                   2.1E11   0.29509  2200 /
 PLOG / 131.578947                   9.4E07   1.28631  2424 /
! Jasper AW Klippenstein SJ Harding LB Ruscic B JPCA 111:3932-3950 2007
! cis and trans products are combined as HCOH

CH3+HO2=CH3O+OH                      1.0E12   0.2688    688