
THERMO ALL
0200.00  1000.00  6000.00


H                       H  1                G   200.00   6000.00   1000.000    1
 0.25000000E+01 0.00000000E+00 0.00000000E+00 0.00000000E+00 0.00000000E+00    2
 0.25473660E+05-0.44668285E+00 0.25000000E+01 0.00000000E+00 0.00000000E+00    3
 0.00000000E+00 0.00000000E+00 0.25473660E+05-0.44668285E+00 0.26219035E+05    4
 
	!1333-74-0
	!H2   Calc from Gurvic's table  HF298= 0.0  REF=Gurvich 78  Max Lst Sq Error Cp
	!@ 400 & 1300 K 0.33%
H2 REF ELEMENT    tpis78H  2.   0.   0.   0.G   200.000  6000.000  1000.000	   1
2.93286575E+00  8.26608026E-04-1.46402364E-07 1.54100414E-11-6.88804800E-16    2
-8.13065581E+02-1.02432865E+00 2.34433112E+00 7.98052075E-03-1.94781510E-05    3
2.01572094E-08 -7.37611761E-12-9.17935173E+02 6.83010238E-01 0.00000000E+00    4 	
! E Goos A Burcat B Ruscic Ideal gas thermochemical database with updates from active thermochemical
! http://burcat.technion.ac.il/dir/
! mirrored at http://garfield.chem.elte.hu/burcat/burcat.html.
! Accessed April 2016 
	

 
	!7440-59-7
	!He  HF298=0.0 KJ  Atomic Energy levels Moore  NSRDS-NBS 35 1971  Max Lst Sq
	!Error Cp 0.0%
HE REF ELEMENT    g 5/97HE 1.   0.   0.   0.G   200.000  6000.000  1000.000	   1
 2.50000000E+00 0.00000000E+00 0.00000000E+00 0.00000000E+00 0.00000000E+00    2
-7.45375000E+02 9.28723974E-01 2.50000000E+00 0.00000000E+00 0.00000000E+00    3
 0.00000000E+00 0.00000000E+00-7.45375000E+02 9.28723974E-01 0.00000000E+00    4 
! E Goos A Burcat B Ruscic Ideal gas thermochemical database with updates from active thermochemical
! http://burcat.technion.ac.il/dir/
! mirrored at http://garfield.chem.elte.hu/burcat/burcat.html.
! Accessed April 2016 
 
 
	!17778-80-2
	!O  HF298=249.175+/-0.1 KJ  REF=C.E. Moore "Selected Tables of Atomic Spectra"
	!NSRDS-NBS Sec 7 1976 p. A8 I {HF298=249.229+/-0.002 kJ  REF=ATcT B}
	
O                 L 1/90O  1.   0.   0.   0.G   200.000  6000.000  1000.000	   1
 2.54363697E+00-2.73162486E-05-4.19029520E-09 4.95481845E-12-4.79553694E-16    2
 2.92260120E+04 4.92229457E+00 3.16826710E+00-3.27931884E-03 6.64306396E-06    3
-6.12806624E-09 2.11265971E-12 2.91222592E+04 2.05193346E+00 2.99687009E+04    4
! E Goos A Burcat B Ruscic Ideal gas thermochemical database with updates from active thermochemical
! http://burcat.technion.ac.il/dir/
! mirrored at http://garfield.chem.elte.hu/burcat/burcat.html.
! Accessed April 2016 


	
	!	3352-57-6
	!	OH  HYDROXYL RADICAL T0=0 STATWT=2 WE=3738   WEXE=-84.88  WEYE=0.54 B0=18.550
	!	T0=139.7 STATWT=2  T0=32403 STATWT=2 WE=3184.3 WEXE=97.845 BE=17.355  REF=Poly-
	!	nomials were calculated directly from Gurvich's Tables wich are direct summation,
	!	HF298=37.3+/-0.3 kJ  HF0=37.1+/-0.3 kJ   REF=Ruscic et al JPC 106,(2002),2727.
	!	Ruscic et al JPCRD 2005  {HF298=37.5+/-0.03 kJ  REF=ATcT B}   Max Lst Sq Error
	!	Cp @ 1200 K 0.28%
OH HYDROXYL RADI  IU3/03O  1.H  1.   0.   0.G   200.000  6000.000  1000.000	   1
 2.83853033E+00 1.10741289E-03-2.94000209E-07 4.20698729E-11-2.42289890E-15    2
 3.69780808E+03 5.84494652E+00 3.99198424E+00-2.40106655E-03 4.61664033E-06    3
-3.87916306E-09 1.36319502E-12 3.36889836E+03-1.03998477E-01 4.48615380E+03    4

 

	!7732-18-5
	!H2O REF=Wooley J. RES. NBS 92 (1987), 35. HF298=-241.826+/-0.04 KJ based on
	!HF298(L) from Cox, Wagman & Medvedev CODATA KEY VAL. for THERMO, Hemisphere 1989
	!p.21 and heat of vap. from Haar, Gallagher & Kell NBS/NRC Tables, Hemisphere
	!1984.   {HF298=-241.822+/-0.03 kJ  REF=ATcT A}.
H2O               L 5/89H   2O   1    0    0G   200.000  6000.000  1000.000	   1
0.26770389E+01  0.29731816E-02-0.77376889E-06 0.94433514E-10-0.42689991E-14    2
-0.29885894E+05 0.68825500E+01 0.41986352E+01-0.20364017E-02 0.65203416E-05    3
-0.54879269E-08 0.17719680E-11-0.30293726E+05-0.84900901E+00-0.29084817E+05    4
! E Goos A Burcat B Ruscic Ideal gas thermochemical database with updates from active thermochemical
! http://burcat.technion.ac.il/dir/
! mirrored at http://garfield.chem.elte.hu/burcat/burcat.html.
! Accessed April 2016 
	
 

	!7727-37-9
	!N2  REFERENCE ELEMENT HF=0. from TSIV Tables  Max Lst Sq Error Cp @ 6000 K 0.29%
N2  REF ELEMENT   G 8/02N  2.   0.   0.   0.G   200.000  6000.000  1000.000	   1
 2.95257637E+00 1.39690040E-03-4.92631603E-07 7.86010195E-11-4.60755204E-15    2
-9.23948688E+02 5.87188762E+00 3.53100528E+00-1.23660988E-04-5.02999433E-07    3
 2.43530612E-09-1.40881235E-12-1.04697628E+03 2.96747038E+00 0.00000000E+00    4 
! E Goos A Burcat B Ruscic Ideal gas thermochemical database with updates from active thermochemical
! http://burcat.technion.ac.il/dir/
! mirrored at http://garfield.chem.elte.hu/burcat/burcat.html.
! Accessed April 2016 
 
 
	!7782-44-7
	!O2  CALCULATED FROM ORIGINAL VALUES  HF298=0 KJ  REF=Gurvich 1989. Corrected by
	!B.McBride NASA TP-2002-211556 Max Lst Sq Error Cp @ 1200 K 0.31%
	
O2 REF ELEMENT    TPIS89O  2.   0.   0.   0.G   200.000  6000.000  1000.000	   1
 3.66096065E+00 6.56365811E-04-1.41149627E-07 2.05797935E-11-1.29913436E-15    2
-1.21597718E+03 3.41536279E+00 3.78245636E+00-2.99673416E-03 9.84730201E-06    3
-9.68129509E-09 3.24372837E-12-1.06394356E+03 3.65767573E+00 0.00000000E+00    4
 ! E Goos A Burcat B Ruscic Ideal gas thermochemical database with updates from active thermochemical
! http://burcat.technion.ac.il/dir/
! mirrored at http://garfield.chem.elte.hu/burcat/burcat.html.
! Accessed April 2016

	!3170-83-0
	!HO2 RADICAL  GROUND STATE STATWT=2  A0=20.356 B0=1.118 C0=1.056 NU=3436.2,
	!1391.75,1097.63 EXCITED STATE T0=7029.684 A0=20.486  B0=1.021 C0=0.968
	!NU=3268.5,1285,929.068 STATWT=2 REF=JACOX JPCRD 17, (1988) P.269   HF298=12.296
	!+/-0.25  REF=ATcT A   {HF298=12.27+/-0.16  kJ  REF=ATcT B;  HF298=12.55 kJ
	!REF=Hills & Howard J. CHEM. PHYS 81,(1984),4458;  HF298=-12.41 +/-0.58 kJ
	!REF=Karton, Parthiban, Martin JPC A 2009}  Max lst Sq Error Cp @ 700 K 0.27%
	
HO2               T 1/09H  1.O  2.   0.   0.G   200.000  5000.000  1000.000	   1
 4.17228741E+00 1.88117627E-03-3.46277286E-07 1.94657549E-11 1.76256905E-16    2
 3.10206839E+01 2.95767672E+00 4.30179807E+00-4.74912097E-03 2.11582905E-05    3
-2.42763914E-08 9.29225225E-12 2.64018485E+02 3.71666220E+00 1.47886045E+03    4
! E Goos A Burcat B Ruscic Ideal gas thermochemical database with updates from active thermochemical
! http://burcat.technion.ac.il/dir/
! mirrored at http://garfield.chem.elte.hu/burcat/burcat.html.
! Accessed April 2016


	! 7722-84-1
	! H2O2 Hydrogen Peroxide  SIGMA=2  IAIBIC=2.976026 E-117 Ir=0.071093 NU=3599,
	! 1388,875,3611,1266  X11=90.9 x12=11 x13=11 x15=167.6 x16=3 x22=10 x23=7
	! x25=11.5 x26=4  x33=10 x35=11.1 x36=2 x55=90.2 x56=3 x66=3  ALFAA1=0.234
	! ALFAA2=-0.104  ALFAA3=-0.034  ALFAA5=0.234 ALFAA6=-0.174  ALFAB1=0.003
	! ALFAB2=0.004  ALFAB3=.007 ALFAB5=.003 ALFAB6=.003 ALFAC1=-.001 ALFAC2=.004
	! ALFAC3=.013 ALFAC5=-.001 ALFAC6=.007  HF298= -135.88+/-0.2 kJ HF0=-129.9 kJ
	! REF=Dorofeeva et al JPCRD 32 (2003),879  {HF298=-135.77+/-0.07  kJ REF=ATcT A;
	! HF298=-135.44+/-0.07 kJ  REF=ATcT B}  Max Lst Sq Error CP @ 6000 K 0.29%
	! Calculated directly from Original tables
	
H2O2 DOROFEEVA e  T 8/03H  2.O  2.   0.   0.G   200.000  6000.000  1000.000	   1
 4.57977305E+00 4.05326003E-03-1.29844730E-06 1.98211400E-10-1.13968792E-14    2
-1.80071775E+04 6.64970694E-01 4.31515149E+00-8.47390622E-04 1.76404323E-05    3
-2.26762944E-08 9.08950158E-12-1.77067437E+04 3.27373319E+00-1.63425145E+04    4
! E Goos A Burcat B Ruscic Ideal gas thermochemical database with updates from active thermochemical
! http://burcat.technion.ac.il/dir/
! mirrored at http://garfield.chem.elte.hu/burcat/burcat.html.
! Accessed April 2016 
 
 
	!7440-37-1
	!Ar  HF298=0.  REF=C.E. Moore "Atomic Energy Levels" NSRDS-NBS 35 (1971) p.211
	!Max Lst Sq Error 0.%
	
AR REF ELEMENT    g 5/97AR 1.   0.   0.   0.G   200.000  6000.000  1000.000	   1
 2.50000000E+00 0.00000000E+00 0.00000000E+00 0.00000000E+00 0.00000000E+00    2
-7.45375000E+02 4.37967491E+00 2.50000000E+00 0.00000000E+00 0.00000000E+00    3
 0.00000000E+00 0.00000000E+00-7.45375000E+02 4.37967491E+00 0.00000000E+00    4
! E Goos A Burcat B Ruscic Ideal gas thermochemical database with updates from active thermochemical
! http://burcat.technion.ac.il/dir/
! mirrored at http://garfield.chem.elte.hu/burcat/burcat.html.
! Accessed April 2016



! <><><><><><><><><><><><><><><><><><><><><><><><><><><><><><><><><><><><><><><>
!						C1 species:
! <><><><><><><><><><><><><><><><><><><><><><><><><><><><><><><><><><><><><><><> 
	!7440-44-0
	!C  Amorphous Carbon, Acetylene black, Lamp black   HF298=716.68+/-0.45 kJ
	!REF=C.E. Moore "Selected Tables of Atomic Spectra"  NSRDS-NBS Sec 3 (1970)
	!p A6 I. {HF298=716.87+/-0.06 kJ  REF=ATcT B; HF0=711.53 kJ ATcT rev value as
	!quoted by Karton Tarnopolsky and Martin Mol Phys 2009}
	
	!C                 L 7/88C   1    0    0    0G   200.000  6000.000  1000.000	   1
	! 0.26055830E+01-0.19593434E-03 0.10673722E-06-0.16423940E-10 0.81870580E-15    2
	! 0.85411742E+05 0.41923868E+01 0.25542395E+01-0.32153772E-03 0.73379223E-06    3
	!-0.73223487E-09 0.26652144E-12 0.85442681E+05 0.45313085E+01 0.86195097E+05    4
	!! E Goos A Burcat B Ruscic Ideal gas thermochemical database with updates from active thermochemical
	!! http://burcat.technion.ac.il/dir/
	!! mirrored at http://garfield.chem.elte.hu/burcat/burcat.html.
	!! Accessed April 2016 
C                       H  0 C  1 O  0      G   200.0   3000.0   1000.0        1
 2.49890977E+00 2.41251693E-06-1.88941591E-09 6.24308817E-13-7.45464315E-17    2
 8.54861801E+04 3.66709658E+00 2.49975500E+00 5.02138576E-07 1.93092758E-09    3
-4.94633147E-12 2.74089371E-15 8.54858461E+04 3.66241113E+00                   4
!DHf(0K) =   170.13 [kcal/mol], taken from SJK v0.9.
!Q(T) from B3LYP/6-311++G(d,p) by CFG on  06Sep2013

 
	!3315-37-5
	!CH  METHYLIDYNE RADICAL CALCULATED FROM Gurvich's Tables IB=01973   We=2732.46
	!HF298=595.8+/-0.6 kJ HF0=592.5+/-0.6 kJ  REF= Ruscic et al JPCRD 2005
	!{HF298=596.17+/-0.12 kJ  REF-ATcT A}
	!CH               IU3/03 C  1.H  1.   0.   0.G   200.000  6000.000  1000.000	   1
	! 0.25209369E+01 0.17653639E-02-0.46147660E-06 0.59289675E-10-0.33474501E-14    2
	! 0.70946769E+05 0.74051829E+01 0.34897583E+01 0.32432160E-03-0.16899751E-05    3
	! 0.31628420E-08-0.14061803E-11 0.70612646E+05 0.20842841E+01 0.71658188E+05    4
	!! E Goos A Burcat B Ruscic Ideal gas thermochemical database with updates from active thermochemical
	!! http://burcat.technion.ac.il/dir/
	!! mirrored at http://garfield.chem.elte.hu/burcat/burcat.html.
	!! Accessed April 2016 
CH                      H  1 C  1 O  0      G   200.0   3000.0   1000.0        1
 2.66195304E+00 1.70244788E-03-6.83824471E-07 1.30979907E-10-9.71842879E-15    2
 7.09589051E+04 6.52673006E+00 3.47158580E+00 4.04745085E-04-1.89387555E-06    3
 3.33209599E-09-1.51271339E-12 7.07017941E+04 2.14542345E+00                   4
!DHf(0K) =   141.76 [kcal/mol], taken from SJK v0.9.
!Q(T) from B3LYP/6-311++G(d,p) by CFG on  06Sep2013	
 
 
	!2465-56-7
	!CH2 METHYLENE RAD TRIPLET This is for applications where triplet methylene is
	!not equilibrated with single methylene. Only HF0 is identical to the one given
	!for the equilibrium Singlet and Triplet. HF298 is o,oo5 kJ lower than given for
	!the equilibrium HF1000=1.1 kJ lower and HF3000 is 6.8 kJ lower than the
	!equilibrium    STATWT=3 SIGMA=2   A0=73.811  B0=8.450  C0=7.184   NU=3031,963,
	!3190  T0=3500  SIGMA=2   HF298=391.2+/-1.6   HF0=390.7 +/-1.6 kJ  REF=Ruscic et
	!al JPCRD 2003 IUPAC Task Group {HF298=391.46+/-0.13  REF=ATcT C}  Max Lst Sq
	!Error Cp @ 6000 K 0.27%	
	!CH2 TRIPLET RAD   IU3/03C  1.H  2.   0.   0.G   200.000  6000.000  1000.000	   1
	! 3.14631886E+00 3.03671259E-03-9.96474439E-07 1.50483580E-10-8.57335515E-15    2
	! 4.60412605E+04 4.72341711E+00 3.71757846E+00 1.27391260E-03 2.17347251E-06    3
	!-3.48858500E-09 1.65208866E-12 4.58723866E+04 1.75297945E+00 4.70504920E+04    4
	!! E Goos A Burcat B Ruscic Ideal gas thermochemical database with updates from active thermochemical
	!! http://burcat.technion.ac.il/dir/
	!! mirrored at http://garfield.chem.elte.hu/burcat/burcat.html.
	!! Accessed April 2016
	
CH2                     H  2 C  1 O  0      G   200.0   3000.0   1000.0        1
 3.16228823E+00 2.81797936E-03-7.56234720E-07 5.05446460E-11 5.65235508E-15    2
 4.60991347E+04 4.77655783E+00 3.83279532E+00 2.24446214E-04 4.68032539E-06    3
-6.04742859E-09 2.59009153E-12 4.59208129E+04 1.40665998E+00                   4
!DHf(0K) =    93.49 [kcal/mol], taken from SJK v0.9.
!Q(T) from B3LYP/6-311++G(d,p) by CFG on  06Sep2013
	
 
 
	!2465-56-7
	!CH2 METHYLENE RADICAL SINGLET   SIGMA=2  STATWT=1   T0=0  IA=0.1391  IB=0.2498
	!IC=0.3960   NU=2806,1353,2865.   T0(b 1B1)=8350.  NU=3000,570,3000  A0=73.8
	!B0=8.59  C0=7.2   HF298=428.8+/-1.6 kJ  HF0=428.3+/-1.6 kJ  REF=Ruscic et al
	!JPCRD IUPAC Task Group 2003. {HF298=429.04+/-0.14 kJ REF=ATcT A}  Max Lst Sq
	!Error Cp @ 1300 K 0.40%
	!CH2(S) SINGLET    IU6/03C  1.H  2.   0.   0.G   200.000  6000.000  1000.000	   1
	! 3.13501686E+00 2.89593926E-03-8.16668090E-07 1.13572697E-10-6.36262835E-15    2
	! 5.05040504E+04 4.06030621E+00 4.19331325E+00-2.33105184E-03 8.15676451E-06    3
	!-6.62985981E-09 1.93233199E-12 5.03662246E+04-7.46734310E-01 5.15727280E+04    4
	!! E Goos A Burcat B Ruscic Ideal gas thermochemical database with updates from active thermochemical
	!! http://burcat.technion.ac.il/dir/
	!! mirrored at http://garfield.chem.elte.hu/burcat/burcat.html.
	!! Accessed April 2016

CH2(S)                  H  2 C  1 O  0      G   200.0   3000.0   1000.0        1
 2.28555698E+00 4.60255468E-03-1.97412470E-06 4.09547538E-10-3.34695477E-14    2
 5.09224394E+04 8.67683691E+00 4.19194506E+00-2.30793137E-03 8.05090105E-06    3
-6.60122583E-09 1.95637604E-12 5.04843433E+04-7.54589150E-01                   4
!DHf(0K) =   102.62 [kcal/mol], taken from SJK v0.9.
!Q(T) from B3LYP/6-311++G(d,p) by CFG on  06Sep2013
	
	
	
	!2229-07-4
	!CH3 METHYL-RAD STATWT=1. SIGMA=6. IA=IB=.2923  IC=.5846  NU=3004,606.4,3161(2),
	!1396(2)  HF298=146.7 +/-0.3 KJ HF0=150.0+/-0.3 kJ REF= Ruscic et al JPCRD 2003.
	!{HF298=146.5+/-0.08 kJ  REF=ATcT C}   Max Lst Sq Error Cp @ 6000 K 0.44%.
	!METHYL RADICAL    IU0702C  1.H  3.   0.   0.G   200.000  6000.000  B  15.03452 1

CH3               IU0702C  1.H  3.   0.   0.G   200.000  6000.000  1000.000	   1
 0.29781206E+01 0.57978520E-02-0.19755800E-05 0.30729790E-09-0.17917416E-13    2
 0.16509513E+05 0.47224799E+01 0.36571797E+01 0.21265979E-02 0.54583883E-05    3
-0.66181003E-08 0.24657074E-11 0.16422716E+05 0.16735354E+01 0.17643935E+05    4 
! E Goos A Burcat B Ruscic Ideal gas thermochemical database with updates from active thermochemical
! http://burcat.technion.ac.il/dir/
! mirrored at http://garfield.chem.elte.hu/burcat/burcat.html.
! Accessed April 2016
 
	!74-82-8
	!CH4  METHANE  Same as the Anharmonic but calculated Using the RRHO method rather
	!than the NRRAO2.  Max Lst Sq Error Cp @ 6000. K 0.62%.
CH4   RRHO        g 8/99C  1.H  4.   0.   0.G   200.000  6000.000  1000.000	   1
 1.91178600E+00 9.60267960E-03-3.38387841E-06 5.38797240E-10-3.19306807E-14    2
-1.00992136E+04 8.48241861E+00 5.14825732E+00-1.37002410E-02 4.93749414E-05    3
-4.91952339E-08 1.70097299E-11-1.02453222E+04-4.63322726E+00-8.97226656E+03    4

	!74-82-8
	!CH4 METHANE  STATWT=1. SIGMA=12.  IA=IB=IC=0.52410356  NU=2916.7,1533.295(2),
	!3019.491(3),1310.756(3)  X11=-26 X12=-3 X13=-75 X14=-4 X22=-.4,X23=-9 X24=-20
	!X33=-17 X34=-17 X44=-11  ALFA1=.01 ALFA2=-.09 ALFA3=.04 ALFA4=.07 D0=1.10864E-4
	!HF298=-74.6+/-0.3 KJ HF0=66.63 kJ REF=TSIV 91 {HF298=-74.554+/-0.60 kJ  REF=ATcT
	!C}   MAX LST SQ ERROR CP @ 1300 K 0.54%.
	!	CH4   ANHARMONIC  g 8/99C  1.H  4.   0.   0.G   200.000  6000.000  1000.000	   1
	!	1.65326226E+00 1.00263099E-02-3.31661238E-06 5.36483138E-10-3.14696758E-14    2
	!	-1.00095936E+04 9.90506283E+00 5.14911468E+00-1.36622009E-02 4.91453921E-05    3
	!	-4.84246767E-08 1.66603441E-11-1.02465983E+04-4.63848842E+00-8.97226656E+03    4 
! E Goos A Burcat B Ruscic Ideal gas thermochemical database with updates from active thermochemical
! http://burcat.technion.ac.il/dir/
! mirrored at http://garfield.chem.elte.hu/burcat/burcat.html.
! Accessed April 2016 
 
 
	!630-08-0
	!CO  CARBON-MONOXIDE  CALCULATED FROM TSIV TABLE. REF=TSIV 79  HF298=-110.53+/-
	!0.17 kJ {HF298=-110.53+/-0.026  REF=ATcT C} Max Lst Sq Error Cp @ 1300 K 0.12%.
CO                RUS 79C   1O   1    0    0G   200.000  6000.000  1000.000	   1
 0.30484859E+01 0.13517281E-02-0.48579405E-06 0.78853644E-10-0.46980746E-14    2
-0.14266117E+05 0.60170977E+01 0.35795335E+01-0.61035369E-03 0.10168143E-05    3
 0.90700586E-09-0.90442449E-12-0.14344086E+05 0.35084093E+01-0.13293628E+05    4
! E Goos A Burcat B Ruscic Ideal gas thermochemical database with updates from active thermochemical
! http://burcat.technion.ac.il/dir/
! mirrored at http://garfield.chem.elte.hu/burcat/burcat.html.
! Accessed April 2016 
 
	!2597-44-6
	!CHO SIGMA=1 STATWT=2 A0=24.562 B0=1.498 C0=1.403 NU=2435,1878,1087 REF=Marenich
	!& Boggs JPC 107 (2003),2343-2350 Direct summation using CCSD(T) method. Calc.
	!from their tables  HF298=42.3+/-2.0 kJ   HF0=41.9 kJ  {HF298=41.83+/-0.1 kJ
	!REF=ATcT C;  HF298=38.8+/-3.3 kJ  G4  REF=Marochkin & Dorofeeva Comp Theor Chem
	!991,(2012},182}   Max Lst Sq Error Cp @ 1500 K 0.63%.
	!CHO               T 5/03C  1.H  1.O  1.   0.G   200.000  6000.000  A  29.01804 1
HCO               T 5/03C  1.H  1.O  1.   0.G   200.000  6000.000  1000.000	   1
 3.92001542E+00 2.52279324E-03-6.71004164E-07 1.05615948E-10-7.43798261E-15    2
 3.65342928E+03 3.58077056E+00 4.23754610E+00-3.32075257E-03 1.40030264E-05    3
-1.34239995E-08 4.37416208E-12 3.87241185E+03 3.30834869E+00 5.08749163E+03    4 
! E Goos A Burcat B Ruscic Ideal gas thermochemical database with updates from active thermochemical
! http://burcat.technion.ac.il/dir/
! mirrored at http://garfield.chem.elte.hu/burcat/burcat.html.
! Accessed April 2016
 
	!50-00-0
	!CH2O  FORMALDEHYDE  SIGMA=2 A0=9.40546 B0=1.295407 C0=1.134216 NU=2782.4,1746.1,
	!1500.1,1167.2,2843.2,1249.1   HF298=-109.164+/-0.1 kJ     REF=ATcT C 2011.
	!{HF298=-108.58 kJ  REF=Gurvich 89;  HF298=-112.5+/-8. kJ  REF=Burcat G3B3}  Max
	!Lst Sq Error Cp @ 1300 K 0.61%.
	!HCHO Formaldehyde T 5/11H  2.C  1.O  1.   0.G   200.000  6000.000  B  30.02598 1
CH2O Formaldehyde T 5/11H  2.C  1.O  1.   0.G   200.000  6000.000  1000.000	   1
 3.16952665E+00 6.19320560E-03-2.25056366E-06 3.65975660E-10-2.20149458E-14    2
-1.45486831E+04 6.04207898E+00 4.79372312E+00-9.90833322E-03 3.73219990E-05    3
-3.79285237E-08 1.31772641E-11-1.43791953E+04 6.02798058E-01-1.31293365E+04    4 
! E Goos A Burcat B Ruscic Ideal gas thermochemical database with updates from active thermochemical
! http://burcat.technion.ac.il/dir/
! mirrored at http://garfield.chem.elte.hu/burcat/burcat.html.
! Accessed April 2016 
 
 
 
	! from Xiong et al., Combust. Flame 161 (2014) 885–897
	!3-HCOH                  C   1H   2O   1    0G   298.150  6000.000 1000.00      1
	! 0.62184153E+01 0.18701090E-02-0.17117529E-06-0.44242689E-10 0.63999362E-14    2
	! 0.23486822E+05-0.97996712E+01 0.36513441E+01 0.46834047E-02 0.11223500E-05    3
	!-0.80289814E-09-0.77469460E-12 0.24561953E+05 0.49211311E+01                   4
	!1-HCOH                  C   1H   2O   1    0G   298.150  6000.000 1000.00      1
	! 0.57648468E+01 0.21295433E-02-0.19747641E-06-0.51074096E-10 0.74327861E-14    2
	! 0.10621689E+05-0.77241540E+01 0.32130404E+01 0.32250737E-02 0.24648079E-05    3
	! 0.15449875E-08-0.27946393E-11 0.11899702E+05 0.76449280E+01                   4
	
	!19710-56-6   
	!CHOH trans Hydroxymethylene trans  SIGMA=1  STATWT=1  IA=0.2970  IB=2.3197
	!IC=2.6167  Nu=3634,2827,1536,1330,1224,1099  REF=Burcat G3B3  HF298=108.16+/-.43
	!kJ  REF=Ruscic ATcT D 2013  {HF298=106.47+/-8 kJ  REF=Burcat G3B3}  Max Lst Sq
	!Error Cp @ 6000 K 0.45%.
	!CHOH trans  Hydr  T12/14C  1.H  2.O  1.   0.G   200.000  6000.000  B  30.02598 1
	!3.63500546E+00 5.45479239E-03-1.91285077E-06 3.03882849E-10-1.79904440E-14    2
	!5.28968001E+04 4.34543184E+00 4.72862471E+00-1.02082828E-02 4.21639528E-05    3
	!-4.64774522E-08 1.72559970E-11 5.31829869E+04 1.69093263E+00 5.44279146E+04    4
    !
	!19710-56-6
	!CH2O cis  Hydroxymethylene  CH**OH cis  SIGMA=1 STATWT=1  IA=0.3036  IB=2.3235
	!IC=2.6260  Nu=3410,2727,1492,1346,1284.5,1019  HF298=30.0139+/-2 kcal
	!REF=Burcat G3B3  {HF298(trans)=108.19+/-0.42 kJ  HF298(cis)=126.66+/-0.42  kJ
	!REF=ATcT C 2011}  Max Lst Sq Error Cp @ 6000 K 0.49%.
HCOH  CH**-OH cis T 9/09C  1.H  2.O  1.   0.G   200.000  6000.000 1000.00      1
 3.65237205E+00 5.55807060E-03-1.97617181E-06 3.16823378E-10-1.88747598E-14    2
 1.35536156E+04 4.22140840E+00 4.65733258E+00-9.53742306E-03 4.04679152E-05    3
-4.45317569E-08 1.64761516E-11 1.38615127E+04 1.97860732E+00 1.51034947E+04    4	
	
	
	
	
	
	
	

 
	!2143-68-2
	!CH3O  METHOXY RADICAL  SYMNO=3.  A0=5.2  B0=C0=0.93  T0 STATWT=3 NU=2840,1417,
	!1047,2774(2),1465,1210,914,653 T0=61.97 STATWT=1  Specific calculations perfo-
	!rmed and the polynomials were calculated from tabular values obtained.
	!HF298=21.0+/-2.1 kJ   HF0=28.4 +/-2.1 kJ  REF=Ruscic et al IUPAC Group JPCRD
	!2003  {HF298=21.85+/-0.4 kJ  REF=ATcT C}   Max Lst Sq Error Cp @ 200 K 0.93%.
CH3O  METHOXY RA  IU1/03C  1.H  3.O  1.   0.G   200.000  6000.000 1000.00      1
 4.75779238E+00 7.44142474E-03-2.69705176E-06 4.38090504E-10-2.63537098E-14    2
 3.78111940E+02-1.96680028E+00 3.71180502E+00-2.80463306E-03 3.76550971E-05    3
-4.73072089E-08 1.86588420E-11 1.29569760E+03 6.57240864E+00 2.52571660E+03    4 
! E Goos A Burcat B Ruscic Ideal gas thermochemical database with updates from active thermochemical
! http://burcat.technion.ac.il/dir/
! mirrored at http://garfield.chem.elte.hu/burcat/burcat.html.
! Accessed April 2016 
 
	!2597-43-5
	!H3CO  HYDROXYMETHYLENE RAD (CH2OH)  STATWT=2.  SIGMA=1.  IA=.4274  IB=2.789
	!IC=3.2164    NU=3650,3169,3071,1459,1334,1176,1048,420,234   HF298=-17.0+/-0.7
	!kJ.  HF0=-10.7+/-0.7  Polynomials calculated from original Tables of Johnson &
	!Hudgens JPC 100 (1996),19874  extrapolated to 6000 K    REF=Ruscic et al JPCRD
	!2003 IUPAC Group   {HF298=-16.1+/-0.4 kJ  REF=ATcT C}   Max Lst Sq Error Cp @
	!200 & 6000 K 0.38%
CH2OH RADICAL     IU2/03C  1.H  3.O  1.   0.G   200.000  6000.000 1000.00      1
 5.09314370E+00 5.94761260E-03-2.06497460E-06 3.23008173E-10-1.88125902E-14    2
-4.03409640E+03-1.84691493E+00 4.47834367E+00-1.35070310E-03 2.78484980E-05    3
-3.64869060E-08 1.47907450E-11-3.50072890E+03 3.30913500E+00-2.04462770E+03    4
! E Goos A Burcat B Ruscic Ideal gas thermochemical database with updates from active thermochemical
! http://burcat.technion.ac.il/dir/
! mirrored at http://garfield.chem.elte.hu/burcat/burcat.html.
! Accessed April 2016 
 
	!67-56-1
	!CH4O  METHANOL (CH3OH) STATWT=1.  SIGMA=1. IA=.6578  IB=3.4004  IC=3.5306
	!Brot=28.182 ROSYM=3  V3=373.21  V6=-0.521 cm-1  NU=3681,3000,2844,1477,1455,
	!1345,1060,1033,2960,1477,1165    HF298=-201. KJ  REF=CHEN WILHOIT &  ZWOLINSKI
	!JPCRD 6,(1977),105  {HF298=-200.70+/-0.17 kJ REF=ATcT C}  MAX LST SQ ERROR Cp
	!@ 1300 K  0.82%.
CH3OH Methyl alc  T06/02C  1.H  4.O  1.   0.G   200.000  6000.000 1000.00      1
 3.52726795E+00 1.03178783E-02-3.62892944E-06 5.77448016E-10-3.42182632E-14    2
-2.60028834E+04 5.16758693E+00 5.65851051E+00-1.62983419E-02 6.91938156E-05    3
-7.58372926E-08 2.80427550E-11-2.56119736E+04-8.97330508E-01-2.41746056E+04    4 
! E Goos A Burcat B Ruscic Ideal gas thermochemical database with updates from active thermochemical
! http://burcat.technion.ac.il/dir/
! mirrored at http://garfield.chem.elte.hu/burcat/burcat.html.
! Accessed April 2016 
 
	!124-38-9
	!CO2  CARBON-DIOXIDE   SIGMA=2   B0=0.39027   NU=1333.5,667(2),2351   X11=-3.014
	!X12=-5.058   X12=-19.048   X22=1.521   X23=-12.616   X33=-12.597   G22=-1.422
	!Y111=.0184   Y112=-.0667   Y113=-.0944    Y122=-.0657  Y123=.0880   Y133=.0268
	!Y222=.0105   Y223=-.0168   Y233=.0320   Y333=.0115   W0=51.834   ALPHA1=.00115
	!ALPHA2=-.000715   ALPHA3=.00311   D000=.129E-6   T0=30000 STATWT=3;   T0=33000
	!STATWT=6  T0=36000  STATWT=3;  T0=45000  STATWT=2;  REF=Gurvich Vol 2 1991 p.27
	!HF298=-393.51 KJ  {HF298=-393.472+/-0.014 kJ  REF=ATcT A}   Max Lst Sq Error Cp
	!@ 1400 K 0.4%
CO2               L 7/88C   1O   2    0    0G   200.000  6000.000 1000.00      1
 0.46365111E+01 0.27414569E-02-0.99589759E-06 0.16038666E-09-0.91619857E-14    2
-0.49024904E+05-0.19348955E+01 0.23568130E+01 0.89841299E-02-0.71220632E-05    3
 0.24573008E-08-0.14288548E-12-0.48371971E+05 0.99009035E+01-0.47328105E+05    4
! E Goos A Burcat B Ruscic Ideal gas thermochemical database with updates from active thermochemical
! http://burcat.technion.ac.il/dir/
! mirrored at http://garfield.chem.elte.hu/burcat/burcat.html.
! Accessed April 2016

	!2564-86-5
	!COOH  HydroxyFormil Rad Equil   HOCO   SIGMA=1 STATWT=2 IAIBIC=35. NU=3316,1797,
	!1261,1088,620,615  REF=TSIV   HF298=-183.971+/-0.533 kJ equil  REF=ATcT C 2011;  
	!{HF298=-181.32+/-2.3 kJ  REF=ATcT A;  HF298=-213.+/-13 KJ  REF=Gurvich 91;
	!HF298=-185.7 kJ  REF=Burcat G3B3}  Max Lst Sq Error Cp @ 6000 K 0.39%.  The 
	!polynomials were adjusted by B. Ruscic.
	!COOH   equilib    A 5/14C  1.O  2.H  1.   0.G   200.000  6000.000  B  45.01744 1
	!HOCO   equilib    A 5/14C  1.O  2.H  1.   0.G   200.000  6000.000 1000.00      1
	!5.39206152E+00 4.11221455E-03-1.48194900E-06 2.39875460E-10-1.43903104E-14    2
	!-2.36480760E+04-2.23529091E+00 2.92207919E+00 7.62453859E-03 3.29884437E-06    3
	!-1.07135205E-08 5.11587057E-12-2.33512327E+04 1.12925886E+01-2.21265065E+04    4
	!! E Goos A Burcat B Ruscic Ideal gas thermochemical database with updates from active thermochemical
	!! http://burcat.technion.ac.il/dir/
	!! mirrored at http://garfield.chem.elte.hu/burcat/burcat.html.
	!! Accessed April 2016
HOCO           FAB/JAN05C   1O   2H   1    0G   200.00   3000.00   998.402     1 !H298 =-44.33 kcal/mol [FAB/JAN05]
 4.63988707E+00 5.66362726E-03-2.67855311E-06 6.17048884E-10-5.60953531E-14    2 !S298 = 60.07 cal/mol/K [FAB/JAN05]
-2.40527335E+04 1.90175132E+00 2.82191157E+00 9.66218175E-03-2.78560177E-06    3 !Cp [FAB/JAN05] (polyfit RAS/GLA08a)
-4.12692493E-09 2.61472072E-12-2.35465218E+04 1.14284719E+01                   4 !
! Fabian WMF Janoschek R J Mol Struct THEOCHEM 2005, 713, 227–234
! CL Rasmussen J Hansen P Marshall P Glarborg Int J Chem Kinet 40 (2008) 454-480



OCHO              1104  C   1H   1N   0O   2G   298.150  3000.000 1000.00      1 ! fitted to litt data
 4.41052368E+00 7.50888367E-03-4.25889679E-06 1.12761124E-09-1.14144138E-13    2
-1.70297531E+04 3.43148293E+00 3.62860375E+00 8.12496033E-03-1.41560718E-06    3
-3.27951824E-09 1.61553900E-12-1.67477889E+04 7.83169538E+00                   4
! Marshall and Glarborg, Proc. Combust. Inst. 35 (2015) 153–160 
 
	!64-18-6
	!CH2O2  METHANOIC (FORMIC) ACID  HCOOH MONOMER  STATWT=1 SIGMA=1  IA=1.0953
	!IB=6.9125  IC=8.0078  BROT=24.96 ROSYM=1 V(1)=2011.  V(2)=3123. V(3)=192.
	!NU=3570,2943,1770,1387,1229,1105,625,1033  NEL=100  HF298=-378.5+/-0.25 kJ for 
	!equil. mix.  REF=ATcT C   {HF298=-378.6 kJ  REF=CHAO & ZWOLINSKI JPCRD 7.(1978),
	!363   HF298=-363.9 kJ  REF=Burcat G3B3 calc}  Max Lst Sq Error Cp @6000 K 0.47%
	!The polynomials were adjusted by B Ruscic.
HOCHO FORMIC ACID A 5/14H   2C   1O   2    0G   200.000  6000.000 1000.00      1
 0.46138316E+01 0.64496364E-02-0.22908251E-05 0.36716047E-09-0.21873675E-13    2
-4.53303180E+04 0.84788383E+00 0.38983616E+01-0.35587795E-02 0.35520538E-04    3
-0.43849959E-07 0.17107769E-10-4.67785744E+04 0.73495397E+01-4.55218865E+04    4
! E Goos A Burcat B Ruscic Ideal gas thermochemical database with updates from active thermochemical
! http://burcat.technion.ac.il/dir/
! mirrored at http://garfield.chem.elte.hu/burcat/burcat.html.
! Accessed April 2016 
 
	!2143-58-0
	!CH3O2  METHYLPEROXIDE RAD (CH3OO)  SIGMA=3  STATWT=2  IA= 1.6120 IB= 7.4226
	!IC=8.4941    NU=3380,3167,3075,1511,1500,1462,1228,1169,1140,929,493,137.8
	!HF298=2.854+/-2. kcal  REF=Burcat G3B3  {HF298=12.055+/-0.9 kJ  REF=ATcT C 2011;
	!HF298-9.0+/-5.1 kJ   REF=Janoscheck IUPAC Sheets JPC 102,(1998) 1770.}  MAX LST
	!SQ ERROR Cp @ 6000 K 0.50 %
	!CH3O2 Methyl Per  T04/10C  1.H  3.O  2.   0.G   200.000  6000.000  B  47.03332 1
	!5.55530486E+00 9.12236137E-03-3.23851661E-06 5.18713798E-10-3.08834151E-14    2
	!-1.03569402E+03-3.99158547E+00 4.97169544E+00-5.29356557E-03 4.77334149E-05    3
	!-5.77065617E-08 2.22219969E-11-1.29022161E+02 2.81501182E+00 1.43618036E+03    4
 
!  H. Hashemi, et al., High-Pressure Oxidation of  Methane, 2016
CH3OO                   C   1H   3O   2     G   300.000  3000.000 1000.00      1
 2.88425280E+00 1.40067710E-02-6.88363514E-06 1.63789865E-09-1.53129010E-13    2
-2.00432571E+01 1.18152986E+01 2.93065328E+00 8.68504133E-03 8.80315108E-06    3
-1.39560866E-08 5.02939926E-12 2.27483038E+02 1.28754751E+01                   4




CH2OOH                  C   1H   3O   2    0G   200.00   2500.00  1000.00      1 !H298 = 15.79 kcal/mol [JAN/ROS04]
 6.98746029E+00 9.00484259E-03-3.24366912E-06 5.24324826E-10-3.13587080E-14    2 !S298 = 65.89 cal/mol/K [JAN/ROS04]
 5.01257769E+03-1.02619220E+01 5.83126679E+00-3.51771199E-03 4.54550577E-05    3 !Cp(T) scaled Cp[CH3OO](T) to Cp298 = 14.89 cal/mol/K [JAN/ROS04]
-5.66903320E-08 2.21633070E-11 6.06187060E+03-5.79143222E-01                   4 ! 