#
# Generated from file ./chemHXD13.inp
# by ck2cti on Tue Jul 28 13:16:01 2009
#
units(length = "cm", time = "s", quantity = "mol", act_energy = "kcal/mol")


ideal_gas(name = "chem",
      elements = " H  C  O  N  Ne  Ar  He  Si  S ",
      species = """ HXD13(1)  CH4(2)  H2(3)  CH3J(14)  C5H7J(13)  C5H7J(85)  C5H7J(84)  C2H6(35)  C10H14(60)  HJ(5) 
                   C5H6(59)  C6H10(62)  C10H14(61)  C10H14(63)  C5H7J(203)  C3H3J(317)  C2H4(638)  C4H6(748)  C5H8(41)  C8H10(758) 
                   C5H6(110) """,
      reactions = "all",
      initial_state = state(temperature = 300.0,
                        pressure = OneAtm)    )



#-------------------------------------------------------------------------------
#  Species data 
#-------------------------------------------------------------------------------

species(name = "HXD13(1)",
    atoms = " C:6  H:10 ",
    thermo = (
       NASA( [  300.00,   995.00], [  2.510110210E+00,   3.193146220E-02, 
                4.692816110E-05,  -8.030101250E-08,   3.165802650E-11,
                4.329809640E+03,   1.820080040E+01] ),
       NASA( [  995.00,  5000.00], [  1.551088410E+01,   2.399392420E-02, 
               -7.924397520E-06,   1.216916970E-09,  -7.058571670E-14,
               -4.517689980E+02,  -5.548203700E+01] )
             )
       )

species(name = "CH4(2)",
    atoms = " C:1  H:4 ",
    thermo = (
       NASA( [  300.00,   995.00], [  3.614653080E+00,  -3.038692720E-03, 
                2.409318930E-05,  -2.352578480E-08,   7.448036500E-12,
               -1.012018380E+04,   1.812887020E+00] ),
       NASA( [  995.00,  5000.00], [  1.927791290E+00,   9.414661900E-03, 
               -3.230731660E-06,   5.098636790E-10,  -3.018453020E-14,
               -1.006529360E+04,   8.531593790E+00] )
             )
       )

species(name = "H2(3)",
    atoms = " H:2 ",
    thermo = (
       NASA( [  300.00,   995.00], [  3.410680590E+00,   4.174413280E-05, 
               -1.084127390E-08,   4.434485560E-10,  -2.213729170E-13,
               -1.019425750E+03,  -3.731037620E+00] ),
       NASA( [  995.00,  5000.00], [  3.226031640E+00,   3.770239330E-04, 
                9.726837410E-08,  -4.004456070E-11,   3.379749800E-15,
               -9.625305100E+02,  -2.739886290E+00] )
             )
       )

species(name = "CH3J(14)",
    atoms = " C:1  H:3 ",
    thermo = (
       NASA( [  300.00,   995.00], [  3.446906450E+00,   3.095193890E-03, 
                4.411248650E-06,  -6.562117750E-09,   2.435011020E-12,
                1.632468800E+04,   2.629408400E+00] ),
       NASA( [  995.00,  5000.00], [  3.999204560E+00,   3.839005300E-03, 
               -1.178191350E-06,   1.763560180E-10,  -1.013262460E-14,
                1.606804120E+04,  -7.696951950E-01] )
             )
       )

species(name = "C5H7J(13)",
    atoms = " C:5  H:7 ",
    thermo = (
       NASA( [  300.00,   995.00], [  2.586825720E+00,   1.857852800E-02, 
                5.044331170E-05,  -7.488865220E-08,   2.855128760E-11,
                2.129533310E+04,   1.624083900E+01] ),
       NASA( [  995.00,  5000.00], [  1.208333310E+01,   1.812226120E-02, 
               -5.729256680E-06,   8.420595230E-10,  -4.710091120E-14,
                1.753814840E+04,  -3.891013220E+01] )
             )
       )

species(name = "C5H7J(85)",
    atoms = " C:5  H:7 ",
    thermo = (
       NASA( [  300.00,   995.00], [  2.701471420E+00,   2.733887710E-02, 
                2.304311390E-05,  -4.820705330E-08,   1.980686070E-11,
                3.676574420E+04,   1.504918430E+01] ),
       NASA( [  995.00,  5000.00], [  1.280006460E+01,   1.645158080E-02, 
               -5.329065940E-06,   8.070293890E-10,  -4.634279040E-14,
                3.328531250E+04,  -4.101076660E+01] )
             )
       )

species(name = "C5H7J(84)",
    atoms = " C:5  H:7 ",
    thermo = (
       NASA( [  300.00,   995.00], [  3.031494560E+00,   2.143171390E-02, 
                3.620470680E-05,  -5.851583620E-08,   2.264171190E-11,
                3.194135040E+04,   1.334359320E+01] ),
       NASA( [  995.00,  5000.00], [  1.108303980E+01,   1.952780750E-02, 
               -6.846934900E-06,   1.095249630E-09,  -6.537480420E-14,
                2.883095140E+04,  -3.303837400E+01] )
             )
       )

species(name = "C2H6(35)",
    atoms = " C:2  H:6 ",
    thermo = (
       NASA( [  300.00,   995.00], [  3.329480260E+00,  -1.238303340E-03, 
                5.042700480E-05,  -5.765629700E-08,   2.001472830E-11,
               -1.154437540E+04,   7.343473250E+00] ),
       NASA( [  995.00,  5000.00], [  4.799128620E+00,   1.409084540E-02, 
               -4.695516180E-06,   7.242858540E-10,  -4.213326900E-14,
               -1.288819790E+04,  -5.022365100E+00] )
             )
       )

species(name = "C10H14(60)",
    atoms = " C:10  H:14 ",
    thermo = (
       NASA( [  300.00,   995.00], [  1.690740150E+00,   6.510122780E-02, 
                4.342931730E-05,  -1.029457280E-07,   4.330132470E-11,
                2.020399470E+04,   2.767197280E+01] ),
       NASA( [  995.00,  5000.00], [  2.622263960E+01,   3.389700300E-02, 
               -1.115327890E-05,   1.709548080E-09,  -9.903816440E-14,
                1.198465990E+04,  -1.073278640E+02] )
             )
       )

species(name = "HJ(5)",
    atoms = " H:1 ",
    thermo = (
       NASA( [  300.00,   995.00], [  3.493271560E+00,  -6.804355010E-03, 
                1.497565950E-05,  -1.331429340E-08,   4.178814660E-12,
                2.537224650E+04,  -4.632976830E+00] ),
       NASA( [  995.00,  5000.00], [  2.688985640E+00,  -2.647384640E-04, 
                1.329883690E-07,  -3.041036870E-11,   2.271797500E-15,
                2.536861900E+04,  -1.579272720E+00] )
             )
       )

species(name = "C5H6(59)",
    atoms = " C:5  H:6 ",
    thermo = (
       NASA( [  300.00,   995.00], [  2.644888690E+00,   2.479959050E-02, 
                2.604827990E-05,  -5.111439540E-08,   2.084644430E-11,
                2.830433470E+04,   1.401738250E+01] ),
       NASA( [  995.00,  5000.00], [  1.305408580E+01,   1.399122920E-02, 
               -4.444122820E-06,   6.610114140E-10,  -3.739942650E-14,
                2.469636960E+04,  -4.386974880E+01] )
             )
       )

species(name = "C6H10(62)",
    atoms = " C:6  H:10 ",
    thermo = (
       NASA( [  300.00,   995.00], [  2.938530330E+00,   3.652488370E-02, 
                2.477579840E-05,  -5.389057720E-08,   2.198264590E-11,
                6.636946270E+03,   1.515566440E+01] ),
       NASA( [  995.00,  5000.00], [  1.326140670E+01,   2.714920220E-02, 
               -9.512958750E-06,   1.524862630E-09,  -9.123562530E-14,
                2.992412710E+03,  -4.258552200E+01] )
             )
       )

species(name = "C10H14(61)",
    atoms = " C:10  H:14 ",
    thermo = (
       NASA( [  300.00,   995.00], [  2.119160270E+00,   6.969464920E-02, 
                2.127695460E-05,  -7.653529260E-08,   3.362594410E-11,
                2.251113140E+04,   2.531991420E+01] ),
       NASA( [  995.00,  5000.00], [  2.397316220E+01,   3.705228100E-02, 
               -1.274184010E-05,   2.017493750E-09,  -1.196880730E-13,
                1.542884160E+04,  -9.373827140E+01] )
             )
       )

species(name = "C10H14(63)",
    atoms = " C:10  H:14 ",
    thermo = (
       NASA( [  300.00,   995.00], [  2.547580390E+00,   7.428807070E-02, 
               -8.754080890E-07,  -5.012485730E-08,   2.395056350E-11,
                2.481826800E+04,   2.158170070E+01] ),
       NASA( [  995.00,  5000.00], [  2.172368470E+01,   4.020755900E-02, 
               -1.433040130E-05,   2.325439410E-09,  -1.403379820E-13,
                1.887302330E+04,  -8.153483380E+01] )
             )
       )

species(name = "C5H7J(203)",
    atoms = " C:5  H:7 ",
    thermo = (
       NASA( [  300.00,   995.00], [  3.038066970E+00,   2.616766740E-02, 
                2.070856150E-05,  -4.283152890E-08,   1.739053370E-11,
                3.963720360E+04,   1.609078540E+01] ),
       NASA( [  995.00,  5000.00], [  1.112770540E+01,   1.897335500E-02, 
               -6.623635040E-06,   1.059129450E-09,  -6.325725120E-14,
                3.677354720E+04,  -2.919681820E+01] )
             )
       )

species(name = "C3H3J(317)",
    atoms = " C:3  H:3 ",
    thermo = (
       NASA( [  300.00,   995.00], [  3.210728120E+00,   1.027505050E-02, 
                1.102891420E-05,  -2.039332220E-08,   8.138221240E-12,
                3.957778400E+04,   8.295167770E+00] ),
       NASA( [  995.00,  5000.00], [  6.741031080E+00,   7.670918960E-03, 
               -2.513166070E-06,   3.828821910E-10,  -2.207574290E-14,
                3.830158190E+04,  -1.160145670E+01] )
             )
       )

species(name = "C2H4(638)",
    atoms = " C:2  H:4 ",
    thermo = (
       NASA( [  300.00,   995.00], [  3.311496350E+00,  -3.674211430E-03, 
                4.451599600E-05,  -5.020783940E-08,   1.743442010E-11,
                5.173999390E+03,   7.060113650E+00] ),
       NASA( [  995.00,  5000.00], [  4.753395220E+00,   9.180272870E-03, 
               -2.977385830E-06,   4.492639430E-10,  -2.568685090E-14,
                3.963731220E+03,  -4.528638590E+00] )
             )
       )

species(name = "C4H6(748)",
    atoms = " C:4  H:6 ",
    thermo = (
       NASA( [  300.00,   995.00], [  3.219578900E+00,   1.741272250E-02, 
                2.335272490E-05,  -3.901741710E-08,   1.510999060E-11,
                1.767991430E+04,   1.086978330E+01] ),
       NASA( [  995.00,  5000.00], [  8.465374320E+00,   1.653805290E-02, 
               -5.799356870E-06,   9.290760450E-10,  -5.554911950E-14,
                1.563529900E+04,  -1.944029000E+01] )
             )
       )

species(name = "C5H8(41)",
    atoms = " C:5  H:8 ",
    thermo = (
       NASA( [  300.00,   995.00], [  2.929315160E+00,   1.955716310E-02, 
                4.826468110E-05,  -7.188376320E-08,   2.730009980E-11,
                1.074695670E+04,   1.616384790E+01] ),
       NASA( [  995.00,  5000.00], [  1.149504790E+01,   2.069274420E-02, 
               -7.066791760E-06,   1.112152400E-09,  -6.566121260E-14,
                7.281430950E+03,  -3.396651400E+01] )
             )
       )

species(name = "C8H10(758)",
    atoms = " C:8  H:10 ",
    thermo = (
       NASA( [  300.00,   995.00], [  2.049743900E+00,   5.296164740E-02, 
                1.333211980E-05,  -5.476709050E-08,   2.442458610E-11,
                3.395019190E+04,   2.243931070E+01] ),
       NASA( [  995.00,  5000.00], [  1.891369240E+01,   2.624950800E-02, 
               -8.326609100E-06,   1.234041910E-09,  -6.963159110E-14,
                2.856044980E+04,  -6.905470460E+01] )
             )
       )

species(name = "C5H6(110)",
    atoms = " C:5  H:6 ",
    thermo = (
       NASA( [  300.00,   995.00], [  2.970167590E+00,   2.385078440E-02, 
                2.421393650E-05,  -4.700895590E-08,   1.900355040E-11,
                2.826855210E+04,   1.235851220E+01] ),
       NASA( [  995.00,  5000.00], [  1.182671500E+01,   1.592328820E-02, 
               -5.555166930E-06,   8.876062870E-10,  -5.296294130E-14,
                2.513594940E+04,  -3.720969430E+01] )
             )
       )



#-------------------------------------------------------------------------------
#  Reaction data 
#-------------------------------------------------------------------------------

#  Reaction 1
# R_Recombination estimate:   C_rad/H2/Cd     C_methyl      
reaction(  "C5H7J(13) + CH3J(14) <=> HXD13(1)",  [2.48740E+15, -0.9, 0.25])

#  Reaction 2
# intra_H_migration exact:   R5H_DSMS     Cd_rad_out_singleH     Cs_H_out_2H      
reaction(  "C5H7J(85) <=> C5H7J(13)",  [4.08000E+05, 1.9199, 7.8968])

#  Reaction 3
# intra_H_migration estimate:   R2H_D     Cd_rad_out_singleH     Cd_H_out_singleDe      
reaction(  "C5H7J(85) <=> C5H7J(84)",  [1.96980E+11, 0.77, 45.05])

#  Reaction 4
# intra_H_migration exact:   R4H_SDS     Cd_rad_out_double     Cs_H_out_2H      
reaction(  "C5H7J(84) <=> C5H7J(13)",  [3.33000E+08, 1.1915, 24.7623])

#  Reaction 5
# R_Recombination exact:   C_methyl     C_methyl      
reaction(  "CH3J(14) + CH3J(14) <=> C2H6(35)",  [8.26000E+17, -1.4, 1])

#  Reaction 6
# R_Recombination estimate:   C_rad/H2/Cd     C_rad/H2/Cd      
reaction(  "C5H7J(13) + C5H7J(13) <=> C10H14(60)",  [1.15000E+13, 0, 0])

#  Reaction 7
# H_Abstraction exact:   C_methane     H_rad      
reaction(  "HJ(5) + CH4(2) <=> H2(3) + CH3J(14)",  [1.22400E+08, 1.87, 10.59])

#  Reaction 8
# R_Recombination exact:   C_methyl     H_rad      
reaction(  "CH3J(14) + HJ(5) <=> CH4(2)",  [1.93000E+14, 0, 0.27])

#  Reaction 9
# R_Recombination exact:   H_rad     H_rad      
reaction(  "HJ(5) + HJ(5) <=> H2(3)",  [1.09000E+11, 0, 1.5])

#  Reaction 10
# Disproportionation exact:   Cdpri_Csrad     C_methyl      
reaction(  "CH3J(14) + C5H7J(13) <=> CH4(2) + C5H6(59)",  [3.01000E+12, -0.32, -0.13])

#  Reaction 11
# Disproportionation exact:   Cmethyl_Csrad     C_methyl      
reaction(  "CH3J(14) + C5H7J(84) <=> CH4(2) + C5H6(59)",  [2.82300E+11, 0.68, 0])

#  Reaction 12
# Disproportionation exact:   H_rad     Cdpri_Csrad      
reaction(  "HJ(5) + C5H7J(13) <=> H2(3) + C5H6(59)",  [1.81000E+13, 0, 0])

#  Reaction 13
# Disproportionation exact:   H_rad     Cmethyl_Csrad      
reaction(  "HJ(5) + C5H7J(84) <=> H2(3) + C5H6(59)",  [1.08300E+13, 0, 0])

#  Reaction 14
# R_Addition_MultipleBond exact:   Cd/H2_Cd/H/De     H_rad      
reaction(  "C5H6(59) + HJ(5) <=> C5H7J(84)",  [3.71000E+13, 0, 1])

#  Reaction 15
# R_Addition_MultipleBond exact:   Ca_Cd/H2     H_rad      
reaction(  "C5H6(59) + HJ(5) <=> C5H7J(13)",  [2.40000E+11, 0.69, 3])

#  Reaction 16
# R_Recombination estimate:   C_rad/H/TwoDe     C_methyl      
reaction(  "C5H7J(13) + CH3J(14) <=> C6H10(62)",  [6.80000E+14, -0.68, 0])

#  Reaction 17
# R_Recombination estimate:   C_rad/H2/Cd     C_rad/H/TwoDe      
reaction(  "C5H7J(13) + C5H7J(13) <=> C10H14(61)",  [4.79000E+14, -0.75, 0])

#  Reaction 18
# R_Recombination estimate:   C_rad/H/TwoDe     C_rad/H/TwoDe      
reaction(  "C5H7J(13) + C5H7J(13) <=> C10H14(63)",  [3.25000E+14, -0.7, 0])

#  Reaction 19
# R_Addition_MultipleBond exact:   Cd/H/De_Cd/H2     H_rad      
reaction(  "C5H6(59) + HJ(5) <=> C5H7J(203)",  [2.85000E+13, 0, 4.3])

#  Reaction 20
# Disproportionation estimate:   C/H2/De_Csrad     C_methyl      
reaction(  "C5H7J(203) + CH3J(14) <=> C5H6(59) + CH4(2)",  [1.14012E+13, -0.071, -0.00217])

#  Reaction 21
# Disproportionation estimate:   C/H2/De_Csrad     H_rad      
reaction(  "C5H7J(203) + HJ(5) <=> C5H6(59) + H2(3)",  [1.14012E+13, -0.071, -0.00217])

#  Reaction 22
# intra_H_migration exact:   Others-R2H_S    C_rad_out_2H     Cs_H_out_H/OneDe      
reaction(  "C5H7J(203) <=> C5H7J(84)",  [2.82000E+08, 1.28, 27.9])

#  Reaction 23
# R_Addition_MultipleBond estimate:   Y_rad_birad     Cd/H2_Cd/H2      
reaction(  "C3H3J(317) + C2H4(638) <=> C5H7J(203)",  [1.45981E+12, 0.17975, 2.98508])

#  Reaction 24
# R_Recombination exact:   C_methyl     Cd_pri_rad      
reaction(  "C3H3J(317) + CH3J(14) <=> C4H6(748)",  [7.23000E+13, 0, 0])

#  Reaction 25
# Disproportionation estimate:   C_rad/H/TwoDe     Cdpri_Csrad      
reaction(  "C5H7J(13) + C5H7J(13) <=> C5H8(41) + C5H6(59)",  [4.58000E+12, -0.35, -0.13])

#  Reaction 26
# Disproportionation estimate:   C_rad/H/TwoDe     Cmethyl_Csrad      
reaction(  "C5H7J(13) + C5H7J(84) <=> C5H8(41) + C5H6(59)",  [6.33000E+14, -0.7, 0])

#  Reaction 27
# R_Recombination estimate:   H_rad     C_rad/H/TwoDe      
reaction(  "HJ(5) + C5H7J(13) <=> C5H8(41)",  [5.00000E+13, 0, 0])

#  Reaction 28
# Disproportionation estimate:   C_rad/H/TwoDe     C/H2/De_Csrad      
reaction(  "C5H7J(13) + C5H7J(203) <=> C5H8(41) + C5H6(59)",  [1.14012E+13, -0.071, -0.00217])

#  Reaction 29
# H_Abstraction exact:   C/H2/TwoDe     C_methyl      
reaction(  "CH3J(14) + C5H8(41) <=> CH4(2) + C5H7J(13)",  [1.50800E+14, 0, 8.1])

#  Reaction 30
# H_Abstraction exact:   C/H2/TwoDe     H_rad      
reaction(  "HJ(5) + C5H8(41) <=> H2(3) + C5H7J(13)",  [1.41800E+04, 2.85, -1.9])

#  Reaction 31
# R_Recombination estimate:   C_rad/H2/Ct     C_rad/H2/Cd      
reaction(  "C3H3J(317) + C5H7J(13) <=> C8H10(758)",  [1.15000E+13, 0, 0])

#  Reaction 32
# R_Addition_MultipleBond exact:   Ct/H_Ct/De     H_rad      
reaction(  "C5H6(110) + HJ(5) <=> C5H7J(84)",  [1.86000E+13, 0, 2.3])

#  Reaction 33
# R_Addition_MultipleBond exact:   Ct/De_Ct/H     H_rad      
reaction(  "C5H6(110) + HJ(5) <=> C5H7J(85)",  [2.25000E+13, 0, 5.4])
