! This kinetic model was generated by RMG. 
! See  http://rmg.mit.edu/ and http://rmg.sourceforge.net/ for details.

ELEMENTS H C O N Ne Ar He Si S END
SPECIES
	HXD13(1)
	CH4(2)
	H2(3)
	CH3J(14)
	C5H7J(13)
	C5H7J(85)
	C5H7J(84)
	C2H6(35)
	C10H14(60)
	HJ(5)
	C5H6(59)
	C6H10(62)
	C10H14(61)
	C10H14(63)
	C5H7J(203)
	C3H3J(317)
	C2H4(638)
	C4H6(748)
	C5H8(41)
	C8H10(758)
	C5H6(110)
END
THERMO ALL
   300.000  1000.000  5000.000
! The first three sets of polynomial coefficients (Ar, N2, Ne) are from         
! THIRD MILLENIUM IDEAL GAS AND CONDENSED PHASE THERMOCHEMICAL DATABASE FOR     
! COMBUSTION WITH UPDATES FROM ACTIVE THERMOCHENICAL TABLES                     
! Authors: Alexander Burcat and Branko Ruscic                                   
!                                                                               
! The rest of the species are estimated by RMG (http://rmg.mit.edu/)            
Ar                L 6/88Ar  1               G   200.000  6000.000 1000.        1
 0.25000000E+01 0.00000000E+00 0.00000000E+00 0.00000000E+00 0.00000000E+00    2
-0.74537500E+03 0.43796749E+01 0.25000000E+01 0.00000000E+00 0.00000000E+00    3
 0.00000000E+00 0.00000000E+00-0.74537500E+03 0.43796749E+01                   4
N2                G 8/02N   2               G   200.000  6000.000 1000.        1
 2.95257637E+00 1.39690040E-03-4.92631603E-07 7.86010195E-11-4.60755204E-15    2
-9.23948688E+02 5.87188762E+00 3.53100528E+00-1.23660988E-04-5.02999433E-07    3
 2.43530612E-09-1.40881235E-12-1.04697628E+03 2.96747038E+00                   4
Ne                L10/90Ne  1               G    200.0   6000.00  1000.0       1
 0.25000000E 01 0.00000000E 00 0.00000000E 00 0.00000000E 00 0.00000000E 00    2
-0.74537500E 03 0.33553227E 01 0.25000000E 01 0.00000000E 00 0.00000000E 00    3
 0.00000000E 00 0.00000000E 00-0.74537498E 03 0.33553227E 01                   4
HXD13(1)                C   6H  10          G   300.000  5000.000   995.043    1
 1.55108841E+01 2.39939242E-02-7.92439752E-06 1.21691697E-09-7.05857167E-14    2
-4.51768998E+02-5.54820370E+01 2.51011021E+00 3.19314622E-02 4.69281611E-05    3
-8.03010125E-08 3.16580265E-11 4.32980964E+03 1.82008004E+01                   4

CH4(2)                  C   1H   4          G   300.000  5000.000   995.043    1
 1.92779129E+00 9.41466190E-03-3.23073166E-06 5.09863679E-10-3.01845302E-14    2
-1.00652936E+04 8.53159379E+00 3.61465308E+00-3.03869272E-03 2.40931893E-05    3
-2.35257848E-08 7.44803650E-12-1.01201838E+04 1.81288702E+00                   4

H2(3)                   C   0H   2          G   300.000  5000.000   995.043    1
 3.22603164E+00 3.77023933E-04 9.72683741E-08-4.00445607E-11 3.37974980E-15    2
-9.62530510E+02-2.73988629E+00 3.41068059E+00 4.17441328E-05-1.08412739E-08    3
 4.43448556E-10-2.21372917E-13-1.01942575E+03-3.73103762E+00                   4

CH3J(14)                C   1H   3          G   300.000  5000.000   995.043    1
 3.99920456E+00 3.83900530E-03-1.17819135E-06 1.76356018E-10-1.01326246E-14    2
 1.60680412E+04-7.69695195E-01 3.44690645E+00 3.09519389E-03 4.41124865E-06    3
-6.56211775E-09 2.43501102E-12 1.63246880E+04 2.62940840E+00                   4

C5H7J(13)               C   5H   7          G   300.000  5000.000   995.043    1
 1.20833331E+01 1.81222612E-02-5.72925668E-06 8.42059523E-10-4.71009112E-14    2
 1.75381484E+04-3.89101322E+01 2.58682572E+00 1.85785280E-02 5.04433117E-05    3
-7.48886522E-08 2.85512876E-11 2.12953331E+04 1.62408390E+01                   4

C5H7J(85)               C   5H   7          G   300.000  5000.000   995.043    1
 1.28000646E+01 1.64515808E-02-5.32906594E-06 8.07029389E-10-4.63427904E-14    2
 3.32853125E+04-4.10107666E+01 2.70147142E+00 2.73388771E-02 2.30431139E-05    3
-4.82070533E-08 1.98068607E-11 3.67657442E+04 1.50491843E+01                   4

C5H7J(84)               C   5H   7          G   300.000  5000.000   995.043    1
 1.10830398E+01 1.95278075E-02-6.84693490E-06 1.09524963E-09-6.53748042E-14    2
 2.88309514E+04-3.30383740E+01 3.03149456E+00 2.14317139E-02 3.62047068E-05    3
-5.85158362E-08 2.26417119E-11 3.19413504E+04 1.33435932E+01                   4

C2H6(35)                C   2H   6          G   300.000  5000.000   995.043    1
 4.79912862E+00 1.40908454E-02-4.69551618E-06 7.24285854E-10-4.21332690E-14    2
-1.28881979E+04-5.02236510E+00 3.32948026E+00-1.23830334E-03 5.04270048E-05    3
-5.76562970E-08 2.00147283E-11-1.15443754E+04 7.34347325E+00                   4

C10H14(60)              C  10H  14          G   300.000  5000.000   995.043    1
 2.62226396E+01 3.38970030E-02-1.11532789E-05 1.70954808E-09-9.90381644E-14    2
 1.19846599E+04-1.07327864E+02 1.69074015E+00 6.51012278E-02 4.34293173E-05    3
-1.02945728E-07 4.33013247E-11 2.02039947E+04 2.76719728E+01                   4

HJ(5)                   C   0H   1          G   300.000  5000.000   995.043    1
 2.68898564E+00-2.64738464E-04 1.32988369E-07-3.04103687E-11 2.27179750E-15    2
 2.53686190E+04-1.57927272E+00 3.49327156E+00-6.80435501E-03 1.49756595E-05    3
-1.33142934E-08 4.17881466E-12 2.53722465E+04-4.63297683E+00                   4

C5H6(59)                C   5H   6          G   300.000  5000.000   995.043    1
 1.30540858E+01 1.39912292E-02-4.44412282E-06 6.61011414E-10-3.73994265E-14    2
 2.46963696E+04-4.38697488E+01 2.64488869E+00 2.47995905E-02 2.60482799E-05    3
-5.11143954E-08 2.08464443E-11 2.83043347E+04 1.40173825E+01                   4

C6H10(62)               C   6H  10          G   300.000  5000.000   995.043    1
 1.32614067E+01 2.71492022E-02-9.51295875E-06 1.52486263E-09-9.12356253E-14    2
 2.99241271E+03-4.25855220E+01 2.93853033E+00 3.65248837E-02 2.47757984E-05    3
-5.38905772E-08 2.19826459E-11 6.63694627E+03 1.51556644E+01                   4

C10H14(61)              C  10H  14          G   300.000  5000.000   995.043    1
 2.39731622E+01 3.70522810E-02-1.27418401E-05 2.01749375E-09-1.19688073E-13    2
 1.54288416E+04-9.37382714E+01 2.11916027E+00 6.96946492E-02 2.12769546E-05    3
-7.65352926E-08 3.36259441E-11 2.25111314E+04 2.53199142E+01                   4

C10H14(63)              C  10H  14          G   300.000  5000.000   995.043    1
 2.17236847E+01 4.02075590E-02-1.43304013E-05 2.32543941E-09-1.40337982E-13    2
 1.88730233E+04-8.15348338E+01 2.54758039E+00 7.42880707E-02-8.75408089E-07    3
-5.01248573E-08 2.39505635E-11 2.48182680E+04 2.15817007E+01                   4

C5H7J(203)              C   5H   7          G   300.000  5000.000   995.043    1
 1.11277054E+01 1.89733550E-02-6.62363504E-06 1.05912945E-09-6.32572512E-14    2
 3.67735472E+04-2.91968182E+01 3.03806697E+00 2.61676674E-02 2.07085615E-05    3
-4.28315289E-08 1.73905337E-11 3.96372036E+04 1.60907854E+01                   4

C3H3J(317)              C   3H   3          G   300.000  5000.000   995.043    1
 6.74103108E+00 7.67091896E-03-2.51316607E-06 3.82882191E-10-2.20757429E-14    2
 3.83015819E+04-1.16014567E+01 3.21072812E+00 1.02750505E-02 1.10289142E-05    3
-2.03933222E-08 8.13822124E-12 3.95777840E+04 8.29516777E+00                   4

C2H4(638)               C   2H   4          G   300.000  5000.000   995.043    1
 4.75339522E+00 9.18027287E-03-2.97738583E-06 4.49263943E-10-2.56868509E-14    2
 3.96373122E+03-4.52863859E+00 3.31149635E+00-3.67421143E-03 4.45159960E-05    3
-5.02078394E-08 1.74344201E-11 5.17399939E+03 7.06011365E+00                   4

C4H6(748)               C   4H   6          G   300.000  5000.000   995.043    1
 8.46537432E+00 1.65380529E-02-5.79935687E-06 9.29076045E-10-5.55491195E-14    2
 1.56352990E+04-1.94402900E+01 3.21957890E+00 1.74127225E-02 2.33527249E-05    3
-3.90174171E-08 1.51099906E-11 1.76799143E+04 1.08697833E+01                   4

C5H8(41)                C   5H   8          G   300.000  5000.000   995.043    1
 1.14950479E+01 2.06927442E-02-7.06679176E-06 1.11215240E-09-6.56612126E-14    2
 7.28143095E+03-3.39665140E+01 2.92931516E+00 1.95571631E-02 4.82646811E-05    3
-7.18837632E-08 2.73000998E-11 1.07469567E+04 1.61638479E+01                   4

C8H10(758)              C   8H  10          G   300.000  5000.000   995.043    1
 1.89136924E+01 2.62495080E-02-8.32660910E-06 1.23404191E-09-6.96315911E-14    2
 2.85604498E+04-6.90547046E+01 2.04974390E+00 5.29616474E-02 1.33321198E-05    3
-5.47670905E-08 2.44245861E-11 3.39501919E+04 2.24393107E+01                   4

C5H6(110)               C   5H   6          G   300.000  5000.000   995.043    1
 1.18267150E+01 1.59232882E-02-5.55516693E-06 8.87606287E-10-5.29629413E-14    2
 2.51359494E+04-3.72096943E+01 2.97016759E+00 2.38507844E-02 2.42139365E-05    3
-4.70089559E-08 1.90035504E-11 2.82685521E+04 1.23585122E+01                   4

END

REACTIONS	KCAL/MOLE
C5H7J(13)+CH3J(14)=HXD13(1) 2.4874006e+15 	 -0.90000 	 0.25000 	 !R_Recombination estimate:   C_rad/H2/Cd     C_methyl     
C5H7J(85)=C5H7J(13) 4.0800000e+05 	 1.91990 	 7.89680 	 !intra_H_migration exact:   R5H_DSMS     Cd_rad_out_singleH     Cs_H_out_2H     
C5H7J(85)=C5H7J(84) 1.9697990e+11 	 0.77000 	 45.05000 	 !intra_H_migration estimate:   R2H_D     Cd_rad_out_singleH     Cd_H_out_singleDe     
C5H7J(84)=C5H7J(13) 3.3300000e+08 	 1.19150 	 24.76230 	 !intra_H_migration exact:   R4H_SDS     Cd_rad_out_double     Cs_H_out_2H     
CH3J(14)+CH3J(14)=C2H6(35) 8.2600000e+17 	 -1.40000 	 1.00000 	 !R_Recombination exact:   C_methyl     C_methyl     
C5H7J(13)+C5H7J(13)=C10H14(60) 1.1500000e+13 	 0.00000 	 0.00000 	 !R_Recombination estimate:   C_rad/H2/Cd     C_rad/H2/Cd     
HJ(5)+CH4(2)=H2(3)+CH3J(14) 1.2240000e+08 	 1.87000 	 10.59000 	 !H_Abstraction exact:   C_methane     H_rad     
CH3J(14)+HJ(5)=CH4(2) 1.9300000e+14 	 0.00000 	 0.27000 	 !R_Recombination exact:   C_methyl     H_rad     
HJ(5)+HJ(5)=H2(3) 1.0900000e+11 	 0.00000 	 1.50000 	 !R_Recombination exact:   H_rad     H_rad     
CH3J(14)+C5H7J(13)=CH4(2)+C5H6(59) 3.0100000e+12 	 -0.32000 	 -0.13000 	 !Disproportionation exact:   Cdpri_Csrad     C_methyl     
CH3J(14)+C5H7J(84)=CH4(2)+C5H6(59) 2.8230000e+11 	 0.68000 	 0.00000 	 !Disproportionation exact:   Cmethyl_Csrad     C_methyl     
HJ(5)+C5H7J(13)=H2(3)+C5H6(59) 1.8100000e+13 	 0.00000 	 0.00000 	 !Disproportionation exact:   H_rad     Cdpri_Csrad     
HJ(5)+C5H7J(84)=H2(3)+C5H6(59) 1.0830000e+13 	 0.00000 	 0.00000 	 !Disproportionation exact:   H_rad     Cmethyl_Csrad     
C5H6(59)+HJ(5)=C5H7J(84) 3.7100000e+13 	 0.00000 	 1.00000 	 !R_Addition_MultipleBond exact:   Cd/H2_Cd/H/De     H_rad     
C5H6(59)+HJ(5)=C5H7J(13) 2.4000000e+11 	 0.69000 	 3.00000 	 !R_Addition_MultipleBond exact:   Ca_Cd/H2     H_rad     
C5H7J(13)+CH3J(14)=C6H10(62) 6.8000000e+14 	 -0.68000 	 0.00000 	 !R_Recombination estimate:   C_rad/H/TwoDe     C_methyl     
C5H7J(13)+C5H7J(13)=C10H14(61) 4.7900000e+14 	 -0.75000 	 0.00000 	 !R_Recombination estimate:   C_rad/H2/Cd     C_rad/H/TwoDe     
C5H7J(13)+C5H7J(13)=C10H14(63) 3.2500000e+14 	 -0.70000 	 0.00000 	 !R_Recombination estimate:   C_rad/H/TwoDe     C_rad/H/TwoDe     
C5H6(59)+HJ(5)=C5H7J(203) 2.8500000e+13 	 0.00000 	 4.30000 	 !R_Addition_MultipleBond exact:   Cd/H/De_Cd/H2     H_rad     
C5H7J(203)+CH3J(14)=C5H6(59)+CH4(2) 1.1401172e+13 	 -0.07100 	 -0.00217 	 !Disproportionation estimate:   C/H2/De_Csrad     C_methyl     
C5H7J(203)+HJ(5)=C5H6(59)+H2(3) 1.1401172e+13 	 -0.07100 	 -0.00217 	 !Disproportionation estimate:   C/H2/De_Csrad     H_rad     
C5H7J(203)=C5H7J(84) 2.8200000e+08 	 1.28000 	 27.90000 	 !intra_H_migration exact:   Others-R2H_S    C_rad_out_2H     Cs_H_out_H/OneDe     
C3H3J(317)+C2H4(638)=C5H7J(203) 1.4598143e+12 	 0.17975 	 2.98508 	 !R_Addition_MultipleBond estimate:   Y_rad_birad     Cd/H2_Cd/H2     
C3H3J(317)+CH3J(14)=C4H6(748) 7.2300000e+13 	 0.00000 	 0.00000 	 !R_Recombination exact:   C_methyl     Cd_pri_rad     
C5H7J(13)+C5H7J(13)=C5H8(41)+C5H6(59) 4.5800000e+12 	 -0.35000 	 -0.13000 	 !Disproportionation estimate:   C_rad/H/TwoDe     Cdpri_Csrad     
C5H7J(13)+C5H7J(84)=C5H8(41)+C5H6(59) 6.3300000e+14 	 -0.70000 	 0.00000 	 !Disproportionation estimate:   C_rad/H/TwoDe     Cmethyl_Csrad     
HJ(5)+C5H7J(13)=C5H8(41) 5.0000000e+13 	 0.00000 	 0.00000 	 !R_Recombination estimate:   H_rad     C_rad/H/TwoDe     
C5H7J(13)+C5H7J(203)=C5H8(41)+C5H6(59) 1.1401172e+13 	 -0.07100 	 -0.00217 	 !Disproportionation estimate:   C_rad/H/TwoDe     C/H2/De_Csrad     
CH3J(14)+C5H8(41)=CH4(2)+C5H7J(13) 1.5080000e+14 	 0.00000 	 8.10000 	 !H_Abstraction exact:   C/H2/TwoDe     C_methyl     
HJ(5)+C5H8(41)=H2(3)+C5H7J(13) 1.4180000e+04 	 2.85000 	 -1.90000 	 !H_Abstraction exact:   C/H2/TwoDe     H_rad     
C3H3J(317)+C5H7J(13)=C8H10(758) 1.1500000e+13 	 0.00000 	 0.00000 	 !R_Recombination estimate:   C_rad/H2/Ct     C_rad/H2/Cd     
C5H6(110)+HJ(5)=C5H7J(84) 1.8600000e+13 	 0.00000 	 2.30000 	 !R_Addition_MultipleBond exact:   Ct/H_Ct/De     H_rad     
C5H6(110)+HJ(5)=C5H7J(85) 2.2500000e+13 	 0.00000 	 5.40000 	 !R_Addition_MultipleBond exact:   Ct/De_Ct/H     H_rad     
END
